                                  MODFLOW-2005     
      U.S. GEOLOGICAL SURVEY MODULAR FINITE-DIFFERENCE GROUND-WATER FLOW MODEL
                            VERSION 1.12.00 2/3/2017

 LIST FILE: testsfr2.lst
                         UNIT   12

 OPENING testsfr2.dis
 FILE TYPE:DIS   UNIT   13   STATUS:OLD    
 FORMAT:FORMATTED              ACCESS:SEQUENTIAL          

 OPENING testsfr2.ghb
 FILE TYPE:GHB   UNIT   15   STATUS:OLD    
 FORMAT:FORMATTED              ACCESS:SEQUENTIAL          

 OPENING testsfr2.bs6
 FILE TYPE:BAS6   UNIT   41   STATUS:OLD    
 FORMAT:FORMATTED              ACCESS:SEQUENTIAL          

 OPENING testsfr2.lpf
 FILE TYPE:LPF   UNIT   42   STATUS:OLD    
 FORMAT:FORMATTED              ACCESS:SEQUENTIAL          

 OPENING testsfr2.pcg
 FILE TYPE:PCG   UNIT   43   STATUS:OLD    
 FORMAT:FORMATTED              ACCESS:SEQUENTIAL          

 OPENING testsfr2.oc
 FILE TYPE:OC   UNIT   44   STATUS:OLD    
 FORMAT:FORMATTED              ACCESS:SEQUENTIAL          

 OPENING testsfr2.sfr
 FILE TYPE:SFR   UNIT   45   STATUS:OLD    
 FORMAT:FORMATTED              ACCESS:SEQUENTIAL          

 OPENING testsfr2.gag
 FILE TYPE:GAGE   UNIT   46   STATUS:OLD    
 FORMAT:FORMATTED              ACCESS:SEQUENTIAL          

 OPENING testsfr2.gg1
 FILE TYPE:DATA   UNIT   83   STATUS:UNKNOWN
 FORMAT:FORMATTED              ACCESS:SEQUENTIAL          

 OPENING testsfr2.gg2
 FILE TYPE:DATA   UNIT   84   STATUS:UNKNOWN
 FORMAT:FORMATTED              ACCESS:SEQUENTIAL          

 OPENING testsfr2.gg3
 FILE TYPE:DATA   UNIT   85   STATUS:UNKNOWN
 FORMAT:FORMATTED              ACCESS:SEQUENTIAL          

 OPENING testsfr2.gg4
 FILE TYPE:DATA   UNIT   86   STATUS:UNKNOWN
 FORMAT:FORMATTED              ACCESS:SEQUENTIAL          

 OPENING testsfr2.gg5
 FILE TYPE:DATA   UNIT   87   STATUS:UNKNOWN
 FORMAT:FORMATTED              ACCESS:SEQUENTIAL          

 OPENING testsfr2.gg6
 FILE TYPE:DATA   UNIT   88   STATUS:UNKNOWN
 FORMAT:FORMATTED              ACCESS:SEQUENTIAL          

 OPENING testsfr2.gg7
 FILE TYPE:DATA   UNIT   89   STATUS:UNKNOWN
 FORMAT:FORMATTED              ACCESS:SEQUENTIAL          

 OPENING testsfr2.gg8
 FILE TYPE:DATA   UNIT   90   STATUS:UNKNOWN
 FORMAT:FORMATTED              ACCESS:SEQUENTIAL          

 BAS -- BASIC PACKAGE, VERSION 7, 5/2/2005 INPUT READ FROM UNIT   41

 MODFLOW was compiled using mixed precision
 Precision of REAL variables:           6
 Precision of DOUBLE PRECISION variables:          15

 DISCRETIZATION INPUT DATA READ FROM UNIT   13
 # Discretization file input for hypothetical test simulation
 # Units: seconds, meters
    1 LAYERS         7 ROWS       100 COLUMNS
   50 STRESS PERIOD(S) IN SIMULATION
 MODEL TIME UNIT IS SECONDS
 MODEL LENGTH UNIT IS METERS
  Confining bed flag for each layer:
   0

                     DELR =   200.000    



                               DELC
 READING ON UNIT   13 WITH FORMAT: (FREE)              
   90.000       90.000       90.000       60.000       90.000    
   90.000       90.000    



           TOP ELEVATION OF LAYER 1
 READING ON UNIT   13 WITH FORMAT: (FREE)              

           1          2          3          4          5          6          7          8          9         10         11
          12         13         14         15         16         17         18         19         20         21         22
          23         24         25         26         27         28         29         30         31         32         33
          34         35         36         37         38         39         40         41         42         43         44
          45         46         47         48         49         50         51         52         53         54         55
          56         57         58         59         60         61         62         63         64         65         66
          67         68         69         70         71         72         73         74         75         76         77
          78         79         80         81         82         83         84         85         86         87         88
          89         90         91         92         93         94         95         96         97         98         99
         100
 .........................................................................................................................
   1    125.       124.       124.       124.       124.       123.       123.       123.       123.       122.       122.    
        122.       122.       121.       121.       121.       121.       120.       120.       120.       120.       119.    
        119.       119.       119.       118.       118.       118.       118.       117.       117.       117.       117.    
        116.       116.       116.       116.       115.       115.       115.       115.       114.       114.       114.    
        114.       113.       113.       113.       113.       112.       112.       112.       112.       111.       111.    
        111.       111.       110.       110.       110.       110.       109.       109.       109.       109.       108.    
        108.       108.       108.       107.       107.       107.       107.       106.       106.       106.       106.    
        105.       105.       105.       105.       104.       104.       104.       104.       103.       103.       103.    
        103.       102.       102.       102.       102.       101.       101.       101.       101.       100.       100.    
        100.    
   2    125.       124.       124.       124.       124.       123.       123.       123.       123.       122.       122.    
        122.       122.       121.       121.       121.       121.       120.       120.       120.       120.       119.    
        119.       119.       119.       118.       118.       118.       118.       117.       117.       117.       117.    
        116.       116.       116.       116.       115.       115.       115.       115.       114.       114.       114.    
        114.       113.       113.       113.       113.       112.       112.       112.       112.       111.       111.    
        111.       111.       110.       110.       110.       110.       109.       109.       109.       109.       108.    
        108.       108.       108.       107.       107.       107.       107.       106.       106.       106.       106.    
        105.       105.       105.       105.       104.       104.       104.       104.       103.       103.       103.    
        103.       102.       102.       102.       102.       101.       101.       101.       101.       100.       100.    
        100.    
   3    125.       124.       124.       124.       124.       123.       123.       123.       123.       122.       122.    
        122.       122.       121.       121.       121.       121.       120.       120.       120.       120.       119.    
        119.       119.       119.       118.       118.       118.       118.       117.       117.       117.       117.    
        116.       116.       116.       116.       115.       115.       115.       115.       114.       114.       114.    
        114.       113.       113.       113.       113.       112.       112.       112.       112.       111.       111.    
        111.       111.       110.       110.       110.       110.       109.       109.       109.       109.       108.    
        108.       108.       108.       107.       107.       107.       107.       106.       106.       106.       106.    
        105.       105.       105.       105.       104.       104.       104.       104.       103.       103.       103.    
        103.       102.       102.       102.       102.       101.       101.       101.       101.       100.       100.    
        100.    
   4    125.       124.       124.       124.       124.       123.       123.       123.       123.       122.       122.    
        122.       122.       121.       121.       121.       121.       120.       120.       120.       120.       119.    
        119.       119.       119.       118.       118.       118.       118.       117.       117.       117.       117.    
        116.       116.       116.       116.       115.       115.       115.       115.       114.       114.       114.    
        114.       113.       113.       113.       113.       112.       112.       112.       112.       111.       111.    
        111.       111.       110.       110.       110.       110.       109.       109.       109.       109.       108.    
        108.       108.       108.       107.       107.       107.       107.       106.       106.       106.       106.    
        105.       105.       105.       105.       104.       104.       104.       104.       103.       103.       103.    
        103.       102.       102.       102.       102.       101.       101.       101.       101.       100.       100.    
        100.    
   5    125.       124.       124.       124.       124.       123.       123.       123.       123.       122.       122.    
        122.       122.       121.       121.       121.       121.       120.       120.       120.       120.       119.    
        119.       119.       119.       118.       118.       118.       118.       117.       117.       117.       117.    
        116.       116.       116.       116.       115.       115.       115.       115.       114.       114.       114.    
        114.       113.       113.       113.       113.       112.       112.       112.       112.       111.       111.    
        111.       111.       110.       110.       110.       110.       109.       109.       109.       109.       108.    
        108.       108.       108.       107.       107.       107.       107.       106.       106.       106.       106.    
        105.       105.       105.       105.       104.       104.       104.       104.       103.       103.       103.    
        103.       102.       102.       102.       102.       101.       101.       101.       101.       100.       100.    
        100.    
   6    125.       124.       124.       124.       124.       123.       123.       123.       123.       122.       122.    
        122.       122.       121.       121.       121.       121.       120.       120.       120.       120.       119.    
        119.       119.       119.       118.       118.       118.       118.       117.       117.       117.       117.    
        116.       116.       116.       116.       115.       115.       115.       115.       114.       114.       114.    
        114.       113.       113.       113.       113.       112.       112.       112.       112.       111.       111.    
        111.       111.       110.       110.       110.       110.       109.       109.       109.       109.       108.    
        108.       108.       108.       107.       107.       107.       107.       106.       106.       106.       106.    
        105.       105.       105.       105.       104.       104.       104.       104.       103.       103.       103.    
        103.       102.       102.       102.       102.       101.       101.       101.       101.       100.       100.    
        100.    
   7    125.       124.       124.       124.       124.       123.       123.       123.       123.       122.       122.    
        122.       122.       121.       121.       121.       121.       120.       120.       120.       120.       119.    
        119.       119.       119.       118.       118.       118.       118.       117.       117.       117.       117.    
        116.       116.       116.       116.       115.       115.       115.       115.       114.       114.       114.    
        114.       113.       113.       113.       113.       112.       112.       112.       112.       111.       111.    
        111.       111.       110.       110.       110.       110.       109.       109.       109.       109.       108.    
        108.       108.       108.       107.       107.       107.       107.       106.       106.       106.       106.    
        105.       105.       105.       105.       104.       104.       104.       104.       103.       103.       103.    
        103.       102.       102.       102.       102.       101.       101.       101.       101.       100.       100.    
        100.    

   MODEL LAYER BOTTOM EL. =   0.00000     FOR LAYER   1


 STRESS PERIOD     LENGTH       TIME STEPS     MULTIPLIER FOR DELT    SS FLAG
 ----------------------------------------------------------------------------
        1         2592000.         30                    1.100         TR
        2         2592000.         30                    1.100         TR
        3         2592000.         30                    1.100         TR
        4         2592000.         30                    1.100         TR
        5         2592000.         30                    1.100         TR
        6         2592000.         30                    1.100         TR
        7         2592000.         30                    1.100         TR
        8         2592000.         30                    1.100         TR
        9         2592000.         30                    1.100         TR
       10         2592000.         30                    1.100         TR
       11         2592000.         30                    1.100         TR
       12         2592000.         30                    1.100         TR
       13         2592000.         30                    1.100         TR
       14         2592000.         30                    1.100         TR
       15         2592000.         30                    1.100         TR
       16         2592000.         30                    1.100         TR
       17         2592000.         30                    1.100         TR
       18         2592000.         30                    1.100         TR
       19         2592000.         30                    1.100         TR
       20         2592000.         30                    1.100         TR
       21         2592000.         30                    1.100         TR
       22         2592000.         30                    1.100         TR
       23         2592000.         30                    1.100         TR
       24         2592000.         30                    1.100         TR
       25         2592000.         30                    1.100         TR
       26         2592000.         30                    1.100         TR
       27         2592000.         30                    1.100         TR
       28         2592000.         30                    1.100         TR
       29         2592000.         30                    1.100         TR
       30         2592000.         30                    1.100         TR
       31         2592000.         30                    1.100         TR
       32         2592000.         30                    1.100         TR
       33         2592000.         30                    1.100         TR
       34         2592000.         30                    1.100         TR
       35         2592000.         30                    1.100         TR
       36         2592000.         30                    1.100         TR
       37         2592000.         30                    1.100         TR
       38         2592000.         30                    1.100         TR
       39         2592000.         30                    1.100         TR
       40         2592000.         30                    1.100         TR
       41         2592000.         30                    1.100         TR
       42         2592000.         30                    1.100         TR
       43         2592000.         30                    1.100         TR
       44         2592000.         30                    1.100         TR
       45         2592000.         30                    1.100         TR
       46         2592000.         30                    1.100         TR
       47         2592000.         30                    1.100         TR
       48         2592000.         30                    1.100         TR
       49         2592000.         30                    1.100         TR
       50         2592000.         30                    1.100         TR

 TRANSIENT SIMULATION




 # BAS6 Package input file for hypothetical test simulation                      
 # Test of SFR2 Package                                                          
 THE FREE FORMAT OPTION HAS BEEN SELECTED



                     BOUNDARY ARRAY FOR LAYER   1
 READING ON UNIT   41 WITH FORMAT: (30I2)              

      1 2 3 4 5 6 7 8 9101112131415161718192021222324252627282930313233343536373839404142434445464748495051525354555657585960
     61626364656667686970717273747576777879808182838485868788899091929394959697989100
 ............................................................................................................................
   1  1 1 1 1 1 1 1 1 1 1 1 1 1 1 1 1 1 1 1 1 1 1 1 1 1 1 1 1 1 1 1 1 1 1 1 1 1 1 1 1 1 1 1 1 1 1 1 1 1 1 1 1 1 1 1 1 1 1 1 1
      1 1 1 1 1 1 1 1 1 1 1 1 1 1 1 1 1 1 1 1 1 1 1 1 1 1 1 1 1 1 1 1 1 1 1 1 1 1 1 1
   2  1 1 1 1 1 1 1 1 1 1 1 1 1 1 1 1 1 1 1 1 1 1 1 1 1 1 1 1 1 1 1 1 1 1 1 1 1 1 1 1 1 1 1 1 1 1 1 1 1 1 1 1 1 1 1 1 1 1 1 1
      1 1 1 1 1 1 1 1 1 1 1 1 1 1 1 1 1 1 1 1 1 1 1 1 1 1 1 1 1 1 1 1 1 1 1 1 1 1 1 1
   3  1 1 1 1 1 1 1 1 1 1 1 1 1 1 1 1 1 1 1 1 1 1 1 1 1 1 1 1 1 1 1 1 1 1 1 1 1 1 1 1 1 1 1 1 1 1 1 1 1 1 1 1 1 1 1 1 1 1 1 1
      1 1 1 1 1 1 1 1 1 1 1 1 1 1 1 1 1 1 1 1 1 1 1 1 1 1 1 1 1 1 1 1 1 1 1 1 1 1 1 1
   4  1 1 1 1 1 1 1 1 1 1 1 1 1 1 1 1 1 1 1 1 1 1 1 1 1 1 1 1 1 1 1 1 1 1 1 1 1 1 1 1 1 1 1 1 1 1 1 1 1 1 1 1 1 1 1 1 1 1 1 1
      1 1 1 1 1 1 1 1 1 1 1 1 1 1 1 1 1 1 1 1 1 1 1 1 1 1 1 1 1 1 1 1 1 1 1 1 1 1 1 1
   5  1 1 1 1 1 1 1 1 1 1 1 1 1 1 1 1 1 1 1 1 1 1 1 1 1 1 1 1 1 1 1 1 1 1 1 1 1 1 1 1 1 1 1 1 1 1 1 1 1 1 1 1 1 1 1 1 1 1 1 1
      1 1 1 1 1 1 1 1 1 1 1 1 1 1 1 1 1 1 1 1 1 1 1 1 1 1 1 1 1 1 1 1 1 1 1 1 1 1 1 1
   6  1 1 1 1 1 1 1 1 1 1 1 1 1 1 1 1 1 1 1 1 1 1 1 1 1 1 1 1 1 1 1 1 1 1 1 1 1 1 1 1 1 1 1 1 1 1 1 1 1 1 1 1 1 1 1 1 1 1 1 1
      1 1 1 1 1 1 1 1 1 1 1 1 1 1 1 1 1 1 1 1 1 1 1 1 1 1 1 1 1 1 1 1 1 1 1 1 1 1 1 1
   7  1 1 1 1 1 1 1 1 1 1 1 1 1 1 1 1 1 1 1 1 1 1 1 1 1 1 1 1 1 1 1 1 1 1 1 1 1 1 1 1 1 1 1 1 1 1 1 1 1 1 1 1 1 1 1 1 1 1 1 1
      1 1 1 1 1 1 1 1 1 1 1 1 1 1 1 1 1 1 1 1 1 1 1 1 1 1 1 1 1 1 1 1 1 1 1 1 1 1 1 1

 AQUIFER HEAD WILL BE SET TO  -6999.0     AT ALL NO-FLOW NODES (IBOUND=0).

             INITIAL HEAD =   104.000     FOR LAYER   1
 # OC input file for hypothetical test simulation
 # Test of SFR2 Package

 OUTPUT CONTROL IS SPECIFIED ONLY AT TIME STEPS FOR WHICH OUTPUT IS DESIRED
 COMPACT CELL-BY-CELL BUDGET FILES WILL BE WRITTEN
 HEAD PRINT FORMAT CODE IS  14    DRAWDOWN PRINT FORMAT CODE IS   0
 HEADS WILL BE SAVED ON UNIT    0    DRAWDOWNS WILL BE SAVED ON UNIT    0

 LPF -- LAYER-PROPERTY FLOW PACKAGE, VERSION 7, 5/2/2005
         INPUT READ FROM UNIT   42
 # LPF Package input file for hypothetical test simulation
 # Test of SFR2 Package
 HEAD AT CELLS THAT CONVERT TO DRY=  -999.00    
 No named parameters

   LAYER FLAGS:
 LAYER       LAYTYP        LAYAVG         CHANI        LAYVKA        LAYWET
 ---------------------------------------------------------------------------
    1             1             0     1.000E+00             0             0

   INTERPRETATION OF LAYER FLAGS:
                        INTERBLOCK     HORIZONTAL    DATA IN
         LAYER TYPE   TRANSMISSIVITY   ANISOTROPY   ARRAY VKA   WETTABILITY
 LAYER      (LAYTYP)      (LAYAVG)       (CHANI)      (LAYVKA)      (LAYWET)
 ---------------------------------------------------------------------------
    1   CONVERTIBLE      HARMONIC     1.000E+00    VERTICAL K  NON-WETTABLE

 WETTING CAPABILITY IS NOT ACTIVE IN ANY LAYER

    HYD. COND. ALONG ROWS =  8.000000E-04 FOR LAYER   1

      VERTICAL HYD. COND. =  6.000000E-06 FOR LAYER   1

         SPECIFIC STORAGE =   0.00000     FOR LAYER   1

           SPECIFIC YIELD =  0.200000     FOR LAYER   1

 GHB -- GENERAL-HEAD BOUNDARY PACKAGE, VERSION 7, 5/2/2005
         INPUT READ FROM UNIT   15
 # GHB Package input file for hypothetical test simulation
 # Test of SFR2 Package
 No named parameters
 MAXIMUM OF      7 ACTIVE GHB CELLS AT ONE TIME
 CELL-BY-CELL FLOWS WILL BE PRINTED WHEN ICBCFL NOT 0


     0 GHB parameters

 SFR7 -- STREAMFLOW ROUTING PACKAGE, VERSION 1.0.8, 2017-02-01
         INPUT READ FROM UNIT  45
 # SFR2 Package input file for hypothetical test simulation
 # Test of SFR2 Package; revised May 20, 2006
 No named parameters

 END PROCESSING SFR2 OPTIONS


 NUMBER OF STREAM REACHES IS  100

 NUMBER OF STREAM SEGMENTS IS    1

 NUMBER OF STREAM PARAMETERS IS    0

 NUMBER OF STREAM SEGMENTS DEFINED USING PARAMETERS IS              0

 MAXIMUM ERROR FOR STREAM LEAKAGE RATES IS  1.00E-05

 CONSTANT FOR MANNINGS EQUATION IS  1.0000E+00





 OPTION FOR UNSATURATED FLOW BENEATH STREAMBEDS IS ACTIVE 




   STREAM NETWORK DESCRIPTION: 

   LAYER    ROW    COL   SEGMENT   REACH     LENGTH
                          NUMBER   NUMBER    IN CELL        
   --------------------------------------------------
      1      4      1       1        1    2.0000E+02
      1      4      2       1        2    2.0000E+02
      1      4      3       1        3    2.0000E+02
      1      4      4       1        4    2.0000E+02
      1      4      5       1        5    2.0000E+02
      1      4      6       1        6    2.0000E+02
      1      4      7       1        7    2.0000E+02
      1      4      8       1        8    2.0000E+02
      1      4      9       1        9    2.0000E+02
      1      4     10       1       10    2.0000E+02
      1      4     11       1       11    2.0000E+02
      1      4     12       1       12    2.0000E+02
      1      4     13       1       13    2.0000E+02
      1      4     14       1       14    2.0000E+02
      1      4     15       1       15    2.0000E+02
      1      4     16       1       16    2.0000E+02
      1      4     17       1       17    2.0000E+02
      1      4     18       1       18    2.0000E+02
      1      4     19       1       19    2.0000E+02
      1      4     20       1       20    2.0000E+02
      1      4     21       1       21    2.0000E+02
      1      4     22       1       22    2.0000E+02
      1      4     23       1       23    2.0000E+02
      1      4     24       1       24    2.0000E+02
      1      4     25       1       25    2.0000E+02
      1      4     26       1       26    2.0000E+02
      1      4     27       1       27    2.0000E+02
      1      4     28       1       28    2.0000E+02
      1      4     29       1       29    2.0000E+02
      1      4     30       1       30    2.0000E+02
      1      4     31       1       31    2.0000E+02
      1      4     32       1       32    2.0000E+02
      1      4     33       1       33    2.0000E+02
      1      4     34       1       34    2.0000E+02
      1      4     35       1       35    2.0000E+02
      1      4     36       1       36    2.0000E+02
      1      4     37       1       37    2.0000E+02
      1      4     38       1       38    2.0000E+02
      1      4     39       1       39    2.0000E+02
      1      4     40       1       40    2.0000E+02
      1      4     41       1       41    2.0000E+02
      1      4     42       1       42    2.0000E+02
      1      4     43       1       43    2.0000E+02
      1      4     44       1       44    2.0000E+02
      1      4     45       1       45    2.0000E+02
      1      4     46       1       46    2.0000E+02
      1      4     47       1       47    2.0000E+02
      1      4     48       1       48    2.0000E+02
      1      4     49       1       49    2.0000E+02
      1      4     50       1       50    2.0000E+02
      1      4     51       1       51    2.0000E+02
      1      4     52       1       52    2.0000E+02
      1      4     53       1       53    2.0000E+02
      1      4     54       1       54    2.0000E+02
      1      4     55       1       55    2.0000E+02
      1      4     56       1       56    2.0000E+02
      1      4     57       1       57    2.0000E+02
      1      4     58       1       58    2.0000E+02
      1      4     59       1       59    2.0000E+02
      1      4     60       1       60    2.0000E+02
      1      4     61       1       61    2.0000E+02
      1      4     62       1       62    2.0000E+02
      1      4     63       1       63    2.0000E+02
      1      4     64       1       64    2.0000E+02
      1      4     65       1       65    2.0000E+02
      1      4     66       1       66    2.0000E+02
      1      4     67       1       67    2.0000E+02
      1      4     68       1       68    2.0000E+02
      1      4     69       1       69    2.0000E+02
      1      4     70       1       70    2.0000E+02
      1      4     71       1       71    2.0000E+02
      1      4     72       1       72    2.0000E+02
      1      4     73       1       73    2.0000E+02
      1      4     74       1       74    2.0000E+02
      1      4     75       1       75    2.0000E+02
      1      4     76       1       76    2.0000E+02
      1      4     77       1       77    2.0000E+02
      1      4     78       1       78    2.0000E+02
      1      4     79       1       79    2.0000E+02
      1      4     80       1       80    2.0000E+02
      1      4     81       1       81    2.0000E+02
      1      4     82       1       82    2.0000E+02
      1      4     83       1       83    2.0000E+02
      1      4     84       1       84    2.0000E+02
      1      4     85       1       85    2.0000E+02
      1      4     86       1       86    2.0000E+02
      1      4     87       1       87    2.0000E+02
      1      4     88       1       88    2.0000E+02
      1      4     89       1       89    2.0000E+02
      1      4     90       1       90    2.0000E+02
      1      4     91       1       91    2.0000E+02
      1      4     92       1       92    2.0000E+02
      1      4     93       1       93    2.0000E+02
      1      4     94       1       94    2.0000E+02
      1      4     95       1       95    2.0000E+02
      1      4     96       1       96    2.0000E+02
      1      4     97       1       97    2.0000E+02
      1      4     98       1       98    2.0000E+02
      1      4     99       1       99    2.0000E+02
      1      4    100       1      100    2.0000E+02
 INITIAL WATER CONTENT IS LESS THAN RESIDUAL WATER CONTENT FOR STREAM SEGMENT:     1 REACH:     1 INITIAL WATER CONTENT RESET TO RESIDUAL OF  0.10000E+00
 INITIAL WATER CONTENT IS LESS THAN RESIDUAL WATER CONTENT FOR STREAM SEGMENT:     1 REACH:     2 INITIAL WATER CONTENT RESET TO RESIDUAL OF  0.10000E+00
 INITIAL WATER CONTENT IS LESS THAN RESIDUAL WATER CONTENT FOR STREAM SEGMENT:     1 REACH:     3 INITIAL WATER CONTENT RESET TO RESIDUAL OF  0.10000E+00
 INITIAL WATER CONTENT IS LESS THAN RESIDUAL WATER CONTENT FOR STREAM SEGMENT:     1 REACH:     4 INITIAL WATER CONTENT RESET TO RESIDUAL OF  0.10000E+00
 INITIAL WATER CONTENT IS LESS THAN RESIDUAL WATER CONTENT FOR STREAM SEGMENT:     1 REACH:     5 INITIAL WATER CONTENT RESET TO RESIDUAL OF  0.10000E+00
 INITIAL WATER CONTENT IS LESS THAN RESIDUAL WATER CONTENT FOR STREAM SEGMENT:     1 REACH:     6 INITIAL WATER CONTENT RESET TO RESIDUAL OF  0.10000E+00
 INITIAL WATER CONTENT IS LESS THAN RESIDUAL WATER CONTENT FOR STREAM SEGMENT:     1 REACH:     7 INITIAL WATER CONTENT RESET TO RESIDUAL OF  0.10000E+00
 INITIAL WATER CONTENT IS LESS THAN RESIDUAL WATER CONTENT FOR STREAM SEGMENT:     1 REACH:     8 INITIAL WATER CONTENT RESET TO RESIDUAL OF  0.10000E+00
 INITIAL WATER CONTENT IS LESS THAN RESIDUAL WATER CONTENT FOR STREAM SEGMENT:     1 REACH:     9 INITIAL WATER CONTENT RESET TO RESIDUAL OF  0.10000E+00
 INITIAL WATER CONTENT IS LESS THAN RESIDUAL WATER CONTENT FOR STREAM SEGMENT:     1 REACH:    10 INITIAL WATER CONTENT RESET TO RESIDUAL OF  0.10000E+00
 INITIAL WATER CONTENT IS LESS THAN RESIDUAL WATER CONTENT FOR STREAM SEGMENT:     1 REACH:    11 INITIAL WATER CONTENT RESET TO RESIDUAL OF  0.10000E+00
 INITIAL WATER CONTENT IS LESS THAN RESIDUAL WATER CONTENT FOR STREAM SEGMENT:     1 REACH:    12 INITIAL WATER CONTENT RESET TO RESIDUAL OF  0.10000E+00
 INITIAL WATER CONTENT IS LESS THAN RESIDUAL WATER CONTENT FOR STREAM SEGMENT:     1 REACH:    13 INITIAL WATER CONTENT RESET TO RESIDUAL OF  0.10000E+00
 INITIAL WATER CONTENT IS LESS THAN RESIDUAL WATER CONTENT FOR STREAM SEGMENT:     1 REACH:    14 INITIAL WATER CONTENT RESET TO RESIDUAL OF  0.10000E+00
 INITIAL WATER CONTENT IS LESS THAN RESIDUAL WATER CONTENT FOR STREAM SEGMENT:     1 REACH:    15 INITIAL WATER CONTENT RESET TO RESIDUAL OF  0.10000E+00
 INITIAL WATER CONTENT IS LESS THAN RESIDUAL WATER CONTENT FOR STREAM SEGMENT:     1 REACH:    16 INITIAL WATER CONTENT RESET TO RESIDUAL OF  0.10000E+00
 INITIAL WATER CONTENT IS LESS THAN RESIDUAL WATER CONTENT FOR STREAM SEGMENT:     1 REACH:    17 INITIAL WATER CONTENT RESET TO RESIDUAL OF  0.10000E+00
 INITIAL WATER CONTENT IS LESS THAN RESIDUAL WATER CONTENT FOR STREAM SEGMENT:     1 REACH:    18 INITIAL WATER CONTENT RESET TO RESIDUAL OF  0.10000E+00
 INITIAL WATER CONTENT IS LESS THAN RESIDUAL WATER CONTENT FOR STREAM SEGMENT:     1 REACH:    19 INITIAL WATER CONTENT RESET TO RESIDUAL OF  0.10000E+00
 INITIAL WATER CONTENT IS LESS THAN RESIDUAL WATER CONTENT FOR STREAM SEGMENT:     1 REACH:    20 INITIAL WATER CONTENT RESET TO RESIDUAL OF  0.10000E+00
 INITIAL WATER CONTENT IS LESS THAN RESIDUAL WATER CONTENT FOR STREAM SEGMENT:     1 REACH:    21 INITIAL WATER CONTENT RESET TO RESIDUAL OF  0.10000E+00
 INITIAL WATER CONTENT IS LESS THAN RESIDUAL WATER CONTENT FOR STREAM SEGMENT:     1 REACH:    22 INITIAL WATER CONTENT RESET TO RESIDUAL OF  0.10000E+00
 INITIAL WATER CONTENT IS LESS THAN RESIDUAL WATER CONTENT FOR STREAM SEGMENT:     1 REACH:    23 INITIAL WATER CONTENT RESET TO RESIDUAL OF  0.10000E+00
 INITIAL WATER CONTENT IS LESS THAN RESIDUAL WATER CONTENT FOR STREAM SEGMENT:     1 REACH:    24 INITIAL WATER CONTENT RESET TO RESIDUAL OF  0.10000E+00
 INITIAL WATER CONTENT IS LESS THAN RESIDUAL WATER CONTENT FOR STREAM SEGMENT:     1 REACH:    25 INITIAL WATER CONTENT RESET TO RESIDUAL OF  0.10000E+00
 INITIAL WATER CONTENT IS LESS THAN RESIDUAL WATER CONTENT FOR STREAM SEGMENT:     1 REACH:    26 INITIAL WATER CONTENT RESET TO RESIDUAL OF  0.10000E+00
 INITIAL WATER CONTENT IS LESS THAN RESIDUAL WATER CONTENT FOR STREAM SEGMENT:     1 REACH:    27 INITIAL WATER CONTENT RESET TO RESIDUAL OF  0.10000E+00
 INITIAL WATER CONTENT IS LESS THAN RESIDUAL WATER CONTENT FOR STREAM SEGMENT:     1 REACH:    28 INITIAL WATER CONTENT RESET TO RESIDUAL OF  0.10000E+00
 INITIAL WATER CONTENT IS LESS THAN RESIDUAL WATER CONTENT FOR STREAM SEGMENT:     1 REACH:    29 INITIAL WATER CONTENT RESET TO RESIDUAL OF  0.10000E+00
 INITIAL WATER CONTENT IS LESS THAN RESIDUAL WATER CONTENT FOR STREAM SEGMENT:     1 REACH:    30 INITIAL WATER CONTENT RESET TO RESIDUAL OF  0.10000E+00
 INITIAL WATER CONTENT IS LESS THAN RESIDUAL WATER CONTENT FOR STREAM SEGMENT:     1 REACH:    31 INITIAL WATER CONTENT RESET TO RESIDUAL OF  0.10000E+00
 INITIAL WATER CONTENT IS LESS THAN RESIDUAL WATER CONTENT FOR STREAM SEGMENT:     1 REACH:    32 INITIAL WATER CONTENT RESET TO RESIDUAL OF  0.10000E+00
 INITIAL WATER CONTENT IS LESS THAN RESIDUAL WATER CONTENT FOR STREAM SEGMENT:     1 REACH:    33 INITIAL WATER CONTENT RESET TO RESIDUAL OF  0.10000E+00
 INITIAL WATER CONTENT IS LESS THAN RESIDUAL WATER CONTENT FOR STREAM SEGMENT:     1 REACH:    34 INITIAL WATER CONTENT RESET TO RESIDUAL OF  0.10000E+00
 INITIAL WATER CONTENT IS LESS THAN RESIDUAL WATER CONTENT FOR STREAM SEGMENT:     1 REACH:    35 INITIAL WATER CONTENT RESET TO RESIDUAL OF  0.10000E+00
 INITIAL WATER CONTENT IS LESS THAN RESIDUAL WATER CONTENT FOR STREAM SEGMENT:     1 REACH:    36 INITIAL WATER CONTENT RESET TO RESIDUAL OF  0.10000E+00
 INITIAL WATER CONTENT IS LESS THAN RESIDUAL WATER CONTENT FOR STREAM SEGMENT:     1 REACH:    37 INITIAL WATER CONTENT RESET TO RESIDUAL OF  0.10000E+00
 INITIAL WATER CONTENT IS LESS THAN RESIDUAL WATER CONTENT FOR STREAM SEGMENT:     1 REACH:    38 INITIAL WATER CONTENT RESET TO RESIDUAL OF  0.10000E+00
 INITIAL WATER CONTENT IS LESS THAN RESIDUAL WATER CONTENT FOR STREAM SEGMENT:     1 REACH:    39 INITIAL WATER CONTENT RESET TO RESIDUAL OF  0.10000E+00
 INITIAL WATER CONTENT IS LESS THAN RESIDUAL WATER CONTENT FOR STREAM SEGMENT:     1 REACH:    40 INITIAL WATER CONTENT RESET TO RESIDUAL OF  0.10000E+00
 INITIAL WATER CONTENT IS LESS THAN RESIDUAL WATER CONTENT FOR STREAM SEGMENT:     1 REACH:    41 INITIAL WATER CONTENT RESET TO RESIDUAL OF  0.10000E+00
 INITIAL WATER CONTENT IS LESS THAN RESIDUAL WATER CONTENT FOR STREAM SEGMENT:     1 REACH:    42 INITIAL WATER CONTENT RESET TO RESIDUAL OF  0.10000E+00
 INITIAL WATER CONTENT IS LESS THAN RESIDUAL WATER CONTENT FOR STREAM SEGMENT:     1 REACH:    43 INITIAL WATER CONTENT RESET TO RESIDUAL OF  0.10000E+00
 INITIAL WATER CONTENT IS LESS THAN RESIDUAL WATER CONTENT FOR STREAM SEGMENT:     1 REACH:    44 INITIAL WATER CONTENT RESET TO RESIDUAL OF  0.10000E+00
 INITIAL WATER CONTENT IS LESS THAN RESIDUAL WATER CONTENT FOR STREAM SEGMENT:     1 REACH:    45 INITIAL WATER CONTENT RESET TO RESIDUAL OF  0.10000E+00
 INITIAL WATER CONTENT IS LESS THAN RESIDUAL WATER CONTENT FOR STREAM SEGMENT:     1 REACH:    46 INITIAL WATER CONTENT RESET TO RESIDUAL OF  0.10000E+00
 INITIAL WATER CONTENT IS LESS THAN RESIDUAL WATER CONTENT FOR STREAM SEGMENT:     1 REACH:    47 INITIAL WATER CONTENT RESET TO RESIDUAL OF  0.10000E+00
 INITIAL WATER CONTENT IS LESS THAN RESIDUAL WATER CONTENT FOR STREAM SEGMENT:     1 REACH:    48 INITIAL WATER CONTENT RESET TO RESIDUAL OF  0.10000E+00
 INITIAL WATER CONTENT IS LESS THAN RESIDUAL WATER CONTENT FOR STREAM SEGMENT:     1 REACH:    49 INITIAL WATER CONTENT RESET TO RESIDUAL OF  0.10000E+00
 INITIAL WATER CONTENT IS LESS THAN RESIDUAL WATER CONTENT FOR STREAM SEGMENT:     1 REACH:    50 INITIAL WATER CONTENT RESET TO RESIDUAL OF  0.10000E+00
 INITIAL WATER CONTENT IS LESS THAN RESIDUAL WATER CONTENT FOR STREAM SEGMENT:     1 REACH:    51 INITIAL WATER CONTENT RESET TO RESIDUAL OF  0.10000E+00
 INITIAL WATER CONTENT IS LESS THAN RESIDUAL WATER CONTENT FOR STREAM SEGMENT:     1 REACH:    52 INITIAL WATER CONTENT RESET TO RESIDUAL OF  0.10000E+00
 INITIAL WATER CONTENT IS LESS THAN RESIDUAL WATER CONTENT FOR STREAM SEGMENT:     1 REACH:    53 INITIAL WATER CONTENT RESET TO RESIDUAL OF  0.10000E+00
 INITIAL WATER CONTENT IS LESS THAN RESIDUAL WATER CONTENT FOR STREAM SEGMENT:     1 REACH:    54 INITIAL WATER CONTENT RESET TO RESIDUAL OF  0.10000E+00
 INITIAL WATER CONTENT IS LESS THAN RESIDUAL WATER CONTENT FOR STREAM SEGMENT:     1 REACH:    55 INITIAL WATER CONTENT RESET TO RESIDUAL OF  0.10000E+00
 INITIAL WATER CONTENT IS LESS THAN RESIDUAL WATER CONTENT FOR STREAM SEGMENT:     1 REACH:    56 INITIAL WATER CONTENT RESET TO RESIDUAL OF  0.10000E+00
 INITIAL WATER CONTENT IS LESS THAN RESIDUAL WATER CONTENT FOR STREAM SEGMENT:     1 REACH:    57 INITIAL WATER CONTENT RESET TO RESIDUAL OF  0.10000E+00
 INITIAL WATER CONTENT IS LESS THAN RESIDUAL WATER CONTENT FOR STREAM SEGMENT:     1 REACH:    58 INITIAL WATER CONTENT RESET TO RESIDUAL OF  0.10000E+00
 INITIAL WATER CONTENT IS LESS THAN RESIDUAL WATER CONTENT FOR STREAM SEGMENT:     1 REACH:    59 INITIAL WATER CONTENT RESET TO RESIDUAL OF  0.10000E+00
 INITIAL WATER CONTENT IS LESS THAN RESIDUAL WATER CONTENT FOR STREAM SEGMENT:     1 REACH:    60 INITIAL WATER CONTENT RESET TO RESIDUAL OF  0.10000E+00
 INITIAL WATER CONTENT IS LESS THAN RESIDUAL WATER CONTENT FOR STREAM SEGMENT:     1 REACH:    61 INITIAL WATER CONTENT RESET TO RESIDUAL OF  0.10000E+00
 INITIAL WATER CONTENT IS LESS THAN RESIDUAL WATER CONTENT FOR STREAM SEGMENT:     1 REACH:    62 INITIAL WATER CONTENT RESET TO RESIDUAL OF  0.10000E+00
 INITIAL WATER CONTENT IS LESS THAN RESIDUAL WATER CONTENT FOR STREAM SEGMENT:     1 REACH:    63 INITIAL WATER CONTENT RESET TO RESIDUAL OF  0.10000E+00
 INITIAL WATER CONTENT IS LESS THAN RESIDUAL WATER CONTENT FOR STREAM SEGMENT:     1 REACH:    64 INITIAL WATER CONTENT RESET TO RESIDUAL OF  0.10000E+00
 INITIAL WATER CONTENT IS LESS THAN RESIDUAL WATER CONTENT FOR STREAM SEGMENT:     1 REACH:    65 INITIAL WATER CONTENT RESET TO RESIDUAL OF  0.10000E+00
 INITIAL WATER CONTENT IS LESS THAN RESIDUAL WATER CONTENT FOR STREAM SEGMENT:     1 REACH:    66 INITIAL WATER CONTENT RESET TO RESIDUAL OF  0.10000E+00
 INITIAL WATER CONTENT IS LESS THAN RESIDUAL WATER CONTENT FOR STREAM SEGMENT:     1 REACH:    67 INITIAL WATER CONTENT RESET TO RESIDUAL OF  0.10000E+00
 INITIAL WATER CONTENT IS LESS THAN RESIDUAL WATER CONTENT FOR STREAM SEGMENT:     1 REACH:    68 INITIAL WATER CONTENT RESET TO RESIDUAL OF  0.10000E+00
 INITIAL WATER CONTENT IS LESS THAN RESIDUAL WATER CONTENT FOR STREAM SEGMENT:     1 REACH:    69 INITIAL WATER CONTENT RESET TO RESIDUAL OF  0.10000E+00
 INITIAL WATER CONTENT IS LESS THAN RESIDUAL WATER CONTENT FOR STREAM SEGMENT:     1 REACH:    70 INITIAL WATER CONTENT RESET TO RESIDUAL OF  0.10000E+00
 INITIAL WATER CONTENT IS LESS THAN RESIDUAL WATER CONTENT FOR STREAM SEGMENT:     1 REACH:    71 INITIAL WATER CONTENT RESET TO RESIDUAL OF  0.10000E+00
 INITIAL WATER CONTENT IS LESS THAN RESIDUAL WATER CONTENT FOR STREAM SEGMENT:     1 REACH:    72 INITIAL WATER CONTENT RESET TO RESIDUAL OF  0.10000E+00
 INITIAL WATER CONTENT IS LESS THAN RESIDUAL WATER CONTENT FOR STREAM SEGMENT:     1 REACH:    73 INITIAL WATER CONTENT RESET TO RESIDUAL OF  0.10000E+00
 INITIAL WATER CONTENT IS LESS THAN RESIDUAL WATER CONTENT FOR STREAM SEGMENT:     1 REACH:    74 INITIAL WATER CONTENT RESET TO RESIDUAL OF  0.10000E+00
 INITIAL WATER CONTENT IS LESS THAN RESIDUAL WATER CONTENT FOR STREAM SEGMENT:     1 REACH:    75 INITIAL WATER CONTENT RESET TO RESIDUAL OF  0.10000E+00
 INITIAL WATER CONTENT IS LESS THAN RESIDUAL WATER CONTENT FOR STREAM SEGMENT:     1 REACH:    76 INITIAL WATER CONTENT RESET TO RESIDUAL OF  0.10000E+00
 INITIAL WATER CONTENT IS LESS THAN RESIDUAL WATER CONTENT FOR STREAM SEGMENT:     1 REACH:    77 INITIAL WATER CONTENT RESET TO RESIDUAL OF  0.10000E+00
 INITIAL WATER CONTENT IS LESS THAN RESIDUAL WATER CONTENT FOR STREAM SEGMENT:     1 REACH:    78 INITIAL WATER CONTENT RESET TO RESIDUAL OF  0.10000E+00
 INITIAL WATER CONTENT IS LESS THAN RESIDUAL WATER CONTENT FOR STREAM SEGMENT:     1 REACH:    79 INITIAL WATER CONTENT RESET TO RESIDUAL OF  0.10000E+00
 INITIAL WATER CONTENT IS LESS THAN RESIDUAL WATER CONTENT FOR STREAM SEGMENT:     1 REACH:    80 INITIAL WATER CONTENT RESET TO RESIDUAL OF  0.10000E+00
 INITIAL WATER CONTENT IS LESS THAN RESIDUAL WATER CONTENT FOR STREAM SEGMENT:     1 REACH:    81 INITIAL WATER CONTENT RESET TO RESIDUAL OF  0.10000E+00
 INITIAL WATER CONTENT IS LESS THAN RESIDUAL WATER CONTENT FOR STREAM SEGMENT:     1 REACH:    82 INITIAL WATER CONTENT RESET TO RESIDUAL OF  0.10000E+00
 INITIAL WATER CONTENT IS LESS THAN RESIDUAL WATER CONTENT FOR STREAM SEGMENT:     1 REACH:    83 INITIAL WATER CONTENT RESET TO RESIDUAL OF  0.10000E+00
 INITIAL WATER CONTENT IS LESS THAN RESIDUAL WATER CONTENT FOR STREAM SEGMENT:     1 REACH:    84 INITIAL WATER CONTENT RESET TO RESIDUAL OF  0.10000E+00
 INITIAL WATER CONTENT IS LESS THAN RESIDUAL WATER CONTENT FOR STREAM SEGMENT:     1 REACH:    85 INITIAL WATER CONTENT RESET TO RESIDUAL OF  0.10000E+00
 INITIAL WATER CONTENT IS LESS THAN RESIDUAL WATER CONTENT FOR STREAM SEGMENT:     1 REACH:    86 INITIAL WATER CONTENT RESET TO RESIDUAL OF  0.10000E+00
 INITIAL WATER CONTENT IS LESS THAN RESIDUAL WATER CONTENT FOR STREAM SEGMENT:     1 REACH:    87 INITIAL WATER CONTENT RESET TO RESIDUAL OF  0.10000E+00
 INITIAL WATER CONTENT IS LESS THAN RESIDUAL WATER CONTENT FOR STREAM SEGMENT:     1 REACH:    88 INITIAL WATER CONTENT RESET TO RESIDUAL OF  0.10000E+00
 INITIAL WATER CONTENT IS LESS THAN RESIDUAL WATER CONTENT FOR STREAM SEGMENT:     1 REACH:    89 INITIAL WATER CONTENT RESET TO RESIDUAL OF  0.10000E+00
 INITIAL WATER CONTENT IS LESS THAN RESIDUAL WATER CONTENT FOR STREAM SEGMENT:     1 REACH:    90 INITIAL WATER CONTENT RESET TO RESIDUAL OF  0.10000E+00
 INITIAL WATER CONTENT IS LESS THAN RESIDUAL WATER CONTENT FOR STREAM SEGMENT:     1 REACH:    91 INITIAL WATER CONTENT RESET TO RESIDUAL OF  0.10000E+00
 INITIAL WATER CONTENT IS LESS THAN RESIDUAL WATER CONTENT FOR STREAM SEGMENT:     1 REACH:    92 INITIAL WATER CONTENT RESET TO RESIDUAL OF  0.10000E+00
 INITIAL WATER CONTENT IS LESS THAN RESIDUAL WATER CONTENT FOR STREAM SEGMENT:     1 REACH:    93 INITIAL WATER CONTENT RESET TO RESIDUAL OF  0.10000E+00
 INITIAL WATER CONTENT IS LESS THAN RESIDUAL WATER CONTENT FOR STREAM SEGMENT:     1 REACH:    94 INITIAL WATER CONTENT RESET TO RESIDUAL OF  0.10000E+00
 INITIAL WATER CONTENT IS LESS THAN RESIDUAL WATER CONTENT FOR STREAM SEGMENT:     1 REACH:    95 INITIAL WATER CONTENT RESET TO RESIDUAL OF  0.10000E+00
 INITIAL WATER CONTENT IS LESS THAN RESIDUAL WATER CONTENT FOR STREAM SEGMENT:     1 REACH:    96 INITIAL WATER CONTENT RESET TO RESIDUAL OF  0.10000E+00
 INITIAL WATER CONTENT IS LESS THAN RESIDUAL WATER CONTENT FOR STREAM SEGMENT:     1 REACH:    97 INITIAL WATER CONTENT RESET TO RESIDUAL OF  0.10000E+00
 INITIAL WATER CONTENT IS LESS THAN RESIDUAL WATER CONTENT FOR STREAM SEGMENT:     1 REACH:    98 INITIAL WATER CONTENT RESET TO RESIDUAL OF  0.10000E+00
 INITIAL WATER CONTENT IS LESS THAN RESIDUAL WATER CONTENT FOR STREAM SEGMENT:     1 REACH:    99 INITIAL WATER CONTENT RESET TO RESIDUAL OF  0.10000E+00
 INITIAL WATER CONTENT IS LESS THAN RESIDUAL WATER CONTENT FOR STREAM SEGMENT:     1 REACH:   100 INITIAL WATER CONTENT RESET TO RESIDUAL OF  0.10000E+00






   8 GAGING STATIONS WERE SPECIFIED.
     (Lakes are identified by a negative value of the Lake Number)
     RECORDS WILL BE WRITTEN TO SEPARATE OUTPUT FILES REPRESENTED BY FOLLOWING UNIT NUMBERS:

 Stream Gages:
  GAGE #   SEGMENT   REACH   UNIT   OUTTYPE
       1       1      20      83       6
       2       1      20      84       7
       3       1      40      85       6
       4       1      40      86       7
       5       1      60      87       6
       6       1      60      88       7
       7       1      80      89       6
       8       1      80      90       7





 PCG -- CONJUGATE-GRADIENT SOLUTION PACKAGE, VERSION 7, 5/2/2005
 # PCG Package input file for hypothetical test simulation
 # Test of SFR2 Package
 MAXIMUM OF    300 CALLS OF SOLUTION ROUTINE
 MAXIMUM OF     20 INTERNAL ITERATIONS PER CALL TO SOLUTION ROUTINE
 MATRIX PRECONDITIONING TYPE :    1



                                    SOLUTION BY THE CONJUGATE-GRADIENT METHOD
                                   -------------------------------------------
                    MAXIMUM NUMBER OF CALLS TO PCG ROUTINE =      300
                        MAXIMUM ITERATIONS PER CALL TO PCG =       20
                               MATRIX PRECONDITIONING TYPE =        1
        RELAXATION FACTOR (ONLY USED WITH PRECOND. TYPE 1) =    0.90000E+00
 PARAMETER OF POLYNOMIAL PRECOND. = 2 (2) OR IS CALCULATED :        2
                         HEAD CHANGE CRITERION FOR CLOSURE =    0.10000E-05
                     RESIDUAL CHANGE CRITERION FOR CLOSURE =    0.10000E-04
            PCG HEAD AND RESIDUAL CHANGE PRINTOUT INTERVAL =      999
     PRINTING FROM SOLVER IS LIMITED(1) OR SUPPRESSED (>1) =        3
                            STEADY-STATE DAMPING PARAMETER =    0.96000E+00
                               TRANSIENT DAMPING PARAMETER =    0.96000E+00
1
                            STRESS PERIOD NO.    1, LENGTH =   2592000.    
                            -----------------------------------------------

                              NUMBER OF TIME STEPS =    30

                               MULTIPLIER FOR DELT =     1.100

                            INITIAL TIME STEP SIZE =   15757.40    

 BOUND. NO. LAYER   ROW   COL     STAGE      CONDUCTANCE         
 ----------------------------------------------------------------
      1      1      1      1       125.0           4.100    
      2      1      2      1       125.0           4.100    
      3      1      3      1       125.0           4.100    
      4      1      4      1       125.0           4.100    
      5      1      5      1       125.0           4.100    
      6      1      6      1       125.0           4.100    
      7      1      7      1       125.0           4.100    

      7 GHB CELLS



 CLASSIFICATION & COUNT OF STREAM SEGMENTS BASED ON SOURCE OF INFLOW:

                HEADWATER     DIVERSION     RECEIVES TRIBUTARY FLOW
                ---------     ---------     -----------------------
                     1              0               0



                    INPUT DATA FOR EACH STREAM SEGMENT
 ---------------------------------------------------------------------------------------------

 SEGMENT    SEG.     INFLOW   OVERLAND   STREAM    STREAM   ICALC  OUTFLOW  DIVERSION PRIORITY
    NO.    LENGTH     RATE     RUNOFF      ET       PPT.    METH.  TO SEG.  FROM SEG.    NO.

      1  2.000E+04 3.000E-01 0.000E+00 0.000E+00 0.000E+00    2        0        0        0


         STREAMBED PROPERTIES AND STREAM DIMENSIONS

 SEGMENT     BED HYD. COND.      BED THICKNESS     ELEV.-TOP OF BED     WIDTH OF STREAM     DEPTH OF STREAM    STREAM ROUGHNESS    SAT. WATER CONT.    INT. WATER CONT.    BROOKS/COREY EPS.     UNSAT. HYD. COND.
    No.     UPPER     LOWER     UPPER     LOWER     UPPER     LOWER     UPPER     LOWER     UPPER     LOWER   CHANNEL      BANK     UPPER     LOWER     UPPER     LOWER     UPPER     LOWER     UPPER

     1  3.500E-07 3.500E-07 5.000E-01 5.000E-01 1.400E+02 1.100E+02                                         3.000E-02 4.000E-02 3.000E-01 3.000E-01 1.000E-01 1.000E-01 3.500E+00 3.500E+00 6.000E-06 6.000E-06

  EIGHT POINT CROSS-SECTION DATA FOR SEGMENTS WITH ICALC = 2
    X VALUES X VALUES START FROM LEFT SIDE LOOKING DOWNSTREAM

     SEGMENT NO.        X1        X2        X3        X4        X5        X6        X7        X8
            1      0.000E+00 2.000E+00 4.000E+00 6.000E+00 8.000E+00 1.000E+01 1.200E+01 1.400E+01

    Z VALUES ARE RELATIVE TO STREAMBED ELEVATION

     SEGMENT NO.          Z1        Z2        Z3        Z4        Z5        Z6        Z7        Z8
            1      6.000E+00 4.500E+00 3.500E+00 0.000E+00 3.000E-01 3.500E+00 4.500E+00 6.000E+00




 SOLVING FOR HEAD 

 NO OUTPUT CONTROL FOR STRESS PERIOD    1   TIME STEP    1

 SOLVING FOR HEAD 

 NO OUTPUT CONTROL FOR STRESS PERIOD    1   TIME STEP    2

 SOLVING FOR HEAD 

 NO OUTPUT CONTROL FOR STRESS PERIOD    1   TIME STEP    3

 SOLVING FOR HEAD 

 NO OUTPUT CONTROL FOR STRESS PERIOD    1   TIME STEP    4

 SOLVING FOR HEAD 

 NO OUTPUT CONTROL FOR STRESS PERIOD    1   TIME STEP    5

 SOLVING FOR HEAD 

 NO OUTPUT CONTROL FOR STRESS PERIOD    1   TIME STEP    6

 SOLVING FOR HEAD 

 NO OUTPUT CONTROL FOR STRESS PERIOD    1   TIME STEP    7

 SOLVING FOR HEAD 

 NO OUTPUT CONTROL FOR STRESS PERIOD    1   TIME STEP    8

 SOLVING FOR HEAD 

 NO OUTPUT CONTROL FOR STRESS PERIOD    1   TIME STEP    9

 SOLVING FOR HEAD 

 OUTPUT CONTROL FOR STRESS PERIOD    1   TIME STEP   10
    PRINT HEAD FOR ALL LAYERS
    PRINT BUDGET
    SAVE BUDGET

  HEAD DEP BOUNDS   PERIOD    1   STEP  10
 BOUNDARY      1   LAYER   1   ROW     1   COL     1   RATE    0.296611    
 BOUNDARY      2   LAYER   1   ROW     2   COL     1   RATE    0.296369    
 BOUNDARY      3   LAYER   1   ROW     3   COL     1   RATE    0.291526    
 BOUNDARY      4   LAYER   1   ROW     4   COL     1   RATE    0.208961    
 BOUNDARY      5   LAYER   1   ROW     5   COL     1   RATE    0.291526    
 BOUNDARY      6   LAYER   1   ROW     6   COL     1   RATE    0.296369    
 BOUNDARY      7   LAYER   1   ROW     7   COL     1   RATE    0.296611    



 STREAM LISTING     PERIOD      1   STEP       10

 LAYER ROW COL. STREAM  RCH.   FLOW INTO    STREAM     FLOW OUT OF   OVRLND.    DIRECT     STREAM      STREAM      STREAM     STREAM  STREAMBED   FLOW TO   CHNG. UNSAT. 
                SEG.NO.  NO.   STRM. RCH.    LOSS       STRM. RCH.   RUNOFF     PRECIP       ET         HEAD        DEPTH      WIDTH  CONDCTNC.   WAT. TAB.

   1    4    1     1     1    3.0000E-01  3.4737E-04   2.9965E-01  0.000E+00  0.000E+00  0.000E+00  1.40279E+02  4.294E-01  2.326E+00  3.737E-04  0.000E+00  3.474E-04
   1    4    2     1     2    2.9965E-01  3.4724E-04   2.9931E-01  0.000E+00  0.000E+00  0.000E+00  1.39979E+02  4.292E-01  2.326E+00  3.737E-04  0.000E+00  3.472E-04
   1    4    3     1     3    2.9931E-01  3.4710E-04   2.9896E-01  0.000E+00  0.000E+00  0.000E+00  1.39679E+02  4.290E-01  2.326E+00  3.736E-04  0.000E+00  3.471E-04
   1    4    4     1     4    2.9896E-01  3.4696E-04   2.9861E-01  0.000E+00  0.000E+00  0.000E+00  1.39379E+02  4.288E-01  2.326E+00  3.735E-04  0.000E+00  3.470E-04
   1    4    5     1     5    2.9861E-01  3.4682E-04   2.9826E-01  0.000E+00  0.000E+00  0.000E+00  1.39079E+02  4.286E-01  2.325E+00  3.735E-04  0.000E+00  3.468E-04
   1    4    6     1     6    2.9826E-01  3.4669E-04   2.9792E-01  0.000E+00  0.000E+00  0.000E+00  1.38778E+02  4.284E-01  2.325E+00  3.734E-04  0.000E+00  3.467E-04
   1    4    7     1     7    2.9792E-01  3.4655E-04   2.9757E-01  0.000E+00  0.000E+00  0.000E+00  1.38478E+02  4.282E-01  2.325E+00  3.733E-04  0.000E+00  3.466E-04
   1    4    8     1     8    2.9757E-01  3.4641E-04   2.9722E-01  0.000E+00  0.000E+00  0.000E+00  1.38178E+02  4.280E-01  2.325E+00  3.733E-04  0.000E+00  3.464E-04
   1    4    9     1     9    2.9722E-01  3.4628E-04   2.9688E-01  0.000E+00  0.000E+00  0.000E+00  1.37878E+02  4.278E-01  2.324E+00  3.732E-04  0.000E+00  3.463E-04
   1    4   10     1    10    2.9688E-01  3.4614E-04   2.9653E-01  0.000E+00  0.000E+00  0.000E+00  1.37578E+02  4.276E-01  2.324E+00  3.732E-04  0.000E+00  3.461E-04
   1    4   11     1    11    2.9653E-01  3.4600E-04   2.9619E-01  0.000E+00  0.000E+00  0.000E+00  1.37277E+02  4.274E-01  2.324E+00  3.731E-04  0.000E+00  3.460E-04
   1    4   12     1    12    2.9619E-01  3.4586E-04   2.9584E-01  0.000E+00  0.000E+00  0.000E+00  1.36977E+02  4.272E-01  2.324E+00  3.730E-04  0.000E+00  3.459E-04
   1    4   13     1    13    2.9584E-01  3.4573E-04   2.9549E-01  0.000E+00  0.000E+00  0.000E+00  1.36677E+02  4.270E-01  2.323E+00  3.730E-04  0.000E+00  3.457E-04
   1    4   14     1    14    2.9549E-01  3.4559E-04   2.9515E-01  0.000E+00  0.000E+00  0.000E+00  1.36377E+02  4.268E-01  2.323E+00  3.729E-04  0.000E+00  3.456E-04
   1    4   15     1    15    2.9515E-01  3.4545E-04   2.9480E-01  0.000E+00  0.000E+00  0.000E+00  1.36077E+02  4.266E-01  2.323E+00  3.728E-04  0.000E+00  3.455E-04
   1    4   16     1    16    2.9480E-01  3.4531E-04   2.9446E-01  0.000E+00  0.000E+00  0.000E+00  1.35776E+02  4.264E-01  2.323E+00  3.728E-04  0.000E+00  3.453E-04
   1    4   17     1    17    2.9446E-01  3.4518E-04   2.9411E-01  0.000E+00  0.000E+00  0.000E+00  1.35476E+02  4.262E-01  2.322E+00  3.727E-04  0.000E+00  3.452E-04
   1    4   18     1    18    2.9411E-01  3.4504E-04   2.9377E-01  0.000E+00  0.000E+00  0.000E+00  1.35176E+02  4.260E-01  2.322E+00  3.726E-04  0.000E+00  3.450E-04
   1    4   19     1    19    2.9377E-01  3.4490E-04   2.9342E-01  0.000E+00  0.000E+00  0.000E+00  1.34876E+02  4.258E-01  2.322E+00  3.726E-04  0.000E+00  3.449E-04
   1    4   20     1    20    2.9342E-01  3.4477E-04   2.9308E-01  0.000E+00  0.000E+00  0.000E+00  1.34576E+02  4.256E-01  2.322E+00  3.725E-04  0.000E+00  3.448E-04
   1    4   21     1    21    2.9308E-01  3.4463E-04   2.9273E-01  0.000E+00  0.000E+00  0.000E+00  1.34275E+02  4.254E-01  2.321E+00  3.724E-04  0.000E+00  3.446E-04
   1    4   22     1    22    2.9273E-01  3.4449E-04   2.9239E-01  0.000E+00  0.000E+00  0.000E+00  1.33975E+02  4.252E-01  2.321E+00  3.724E-04  0.000E+00  3.445E-04
   1    4   23     1    23    2.9239E-01  3.4435E-04   2.9205E-01  0.000E+00  0.000E+00  0.000E+00  1.33675E+02  4.250E-01  2.321E+00  3.723E-04  0.000E+00  3.444E-04
   1    4   24     1    24    2.9205E-01  3.4422E-04   2.9170E-01  0.000E+00  0.000E+00  0.000E+00  1.33375E+02  4.248E-01  2.321E+00  3.722E-04  0.000E+00  3.442E-04
   1    4   25     1    25    2.9170E-01  3.4408E-04   2.9136E-01  0.000E+00  0.000E+00  0.000E+00  1.33075E+02  4.246E-01  2.320E+00  3.722E-04  0.000E+00  3.441E-04
   1    4   26     1    26    2.9136E-01  3.4394E-04   2.9101E-01  0.000E+00  0.000E+00  0.000E+00  1.32774E+02  4.244E-01  2.320E+00  3.721E-04  0.000E+00  3.439E-04
   1    4   27     1    27    2.9101E-01  3.4381E-04   2.9067E-01  0.000E+00  0.000E+00  0.000E+00  1.32474E+02  4.242E-01  2.320E+00  3.720E-04  0.000E+00  3.438E-04
   1    4   28     1    28    2.9067E-01  3.4367E-04   2.9033E-01  0.000E+00  0.000E+00  0.000E+00  1.32174E+02  4.240E-01  2.320E+00  3.720E-04  0.000E+00  3.437E-04
   1    4   29     1    29    2.9033E-01  3.4353E-04   2.8998E-01  0.000E+00  0.000E+00  0.000E+00  1.31874E+02  4.237E-01  2.319E+00  3.719E-04  0.000E+00  3.435E-04
   1    4   30     1    30    2.8998E-01  3.4339E-04   2.8964E-01  0.000E+00  0.000E+00  0.000E+00  1.31574E+02  4.235E-01  2.319E+00  3.718E-04  0.000E+00  3.434E-04
   1    4   31     1    31    2.8964E-01  3.4326E-04   2.8930E-01  0.000E+00  0.000E+00  0.000E+00  1.31273E+02  4.233E-01  2.319E+00  3.718E-04  0.000E+00  3.433E-04
   1    4   32     1    32    2.8930E-01  3.4312E-04   2.8895E-01  0.000E+00  0.000E+00  0.000E+00  1.30973E+02  4.231E-01  2.319E+00  3.717E-04  0.000E+00  3.431E-04
   1    4   33     1    33    2.8895E-01  3.4298E-04   2.8861E-01  0.000E+00  0.000E+00  0.000E+00  1.30673E+02  4.229E-01  2.319E+00  3.716E-04  0.000E+00  3.430E-04
   1    4   34     1    34    2.8861E-01  3.4285E-04   2.8827E-01  0.000E+00  0.000E+00  0.000E+00  1.30373E+02  4.227E-01  2.318E+00  3.716E-04  0.000E+00  3.428E-04
   1    4   35     1    35    2.8827E-01  3.4271E-04   2.8792E-01  0.000E+00  0.000E+00  0.000E+00  1.30073E+02  4.225E-01  2.318E+00  3.715E-04  0.000E+00  3.427E-04
   1    4   36     1    36    2.8792E-01  3.4257E-04   2.8758E-01  0.000E+00  0.000E+00  0.000E+00  1.29772E+02  4.223E-01  2.318E+00  3.714E-04  0.000E+00  3.426E-04
   1    4   37     1    37    2.8758E-01  3.4244E-04   2.8724E-01  0.000E+00  0.000E+00  0.000E+00  1.29472E+02  4.221E-01  2.318E+00  3.714E-04  0.000E+00  3.424E-04
   1    4   38     1    38    2.8724E-01  3.4230E-04   2.8690E-01  0.000E+00  0.000E+00  0.000E+00  1.29172E+02  4.219E-01  2.317E+00  3.713E-04  0.000E+00  3.423E-04
   1    4   39     1    39    2.8690E-01  3.4216E-04   2.8655E-01  0.000E+00  0.000E+00  0.000E+00  1.28872E+02  4.217E-01  2.317E+00  3.712E-04  0.000E+00  3.422E-04
   1    4   40     1    40    2.8655E-01  3.4203E-04   2.8621E-01  0.000E+00  0.000E+00  0.000E+00  1.28572E+02  4.215E-01  2.317E+00  3.712E-04  0.000E+00  3.420E-04
   1    4   41     1    41    2.8621E-01  3.4189E-04   2.8587E-01  0.000E+00  0.000E+00  0.000E+00  1.28271E+02  4.213E-01  2.317E+00  3.711E-04  0.000E+00  3.419E-04
   1    4   42     1    42    2.8587E-01  3.4175E-04   2.8553E-01  0.000E+00  0.000E+00  0.000E+00  1.27971E+02  4.211E-01  2.316E+00  3.710E-04  0.000E+00  3.418E-04
   1    4   43     1    43    2.8553E-01  3.4162E-04   2.8519E-01  0.000E+00  0.000E+00  0.000E+00  1.27671E+02  4.209E-01  2.316E+00  3.710E-04  0.000E+00  3.416E-04
   1    4   44     1    44    2.8519E-01  3.4148E-04   2.8485E-01  0.000E+00  0.000E+00  0.000E+00  1.27371E+02  4.207E-01  2.316E+00  3.709E-04  0.000E+00  3.415E-04
   1    4   45     1    45    2.8485E-01  3.4134E-04   2.8450E-01  0.000E+00  0.000E+00  0.000E+00  1.27070E+02  4.205E-01  2.316E+00  3.708E-04  0.000E+00  3.413E-04
   1    4   46     1    46    2.8450E-01  3.4121E-04   2.8416E-01  0.000E+00  0.000E+00  0.000E+00  1.26770E+02  4.203E-01  2.315E+00  3.708E-04  0.000E+00  3.412E-04
   1    4   47     1    47    2.8416E-01  3.4107E-04   2.8382E-01  0.000E+00  0.000E+00  0.000E+00  1.26470E+02  4.201E-01  2.315E+00  3.707E-04  0.000E+00  3.411E-04
   1    4   48     1    48    2.8382E-01  3.4093E-04   2.8348E-01  0.000E+00  0.000E+00  0.000E+00  1.26170E+02  4.199E-01  2.315E+00  3.706E-04  0.000E+00  3.409E-04
   1    4   49     1    49    2.8348E-01  3.4080E-04   2.8314E-01  0.000E+00  0.000E+00  0.000E+00  1.25870E+02  4.197E-01  2.315E+00  3.706E-04  0.000E+00  3.408E-04
   1    4   50     1    50    2.8314E-01  3.4066E-04   2.8280E-01  0.000E+00  0.000E+00  0.000E+00  1.25569E+02  4.195E-01  2.314E+00  3.705E-04  0.000E+00  3.407E-04
   1    4   51     1    51    2.8280E-01  3.4052E-04   2.8246E-01  0.000E+00  0.000E+00  0.000E+00  1.25269E+02  4.193E-01  2.314E+00  3.704E-04  0.000E+00  3.405E-04
   1    4   52     1    52    2.8246E-01  3.4039E-04   2.8212E-01  0.000E+00  0.000E+00  0.000E+00  1.24969E+02  4.191E-01  2.314E+00  3.704E-04  0.000E+00  3.404E-04
   1    4   53     1    53    2.8212E-01  3.4025E-04   2.8178E-01  0.000E+00  0.000E+00  0.000E+00  1.24669E+02  4.189E-01  2.314E+00  3.703E-04  0.000E+00  3.402E-04
   1    4   54     1    54    2.8178E-01  3.4011E-04   2.8144E-01  0.000E+00  0.000E+00  0.000E+00  1.24369E+02  4.187E-01  2.313E+00  3.702E-04  0.000E+00  3.401E-04
   1    4   55     1    55    2.8144E-01  3.3998E-04   2.8110E-01  0.000E+00  0.000E+00  0.000E+00  1.24068E+02  4.185E-01  2.313E+00  3.702E-04  0.000E+00  3.400E-04
   1    4   56     1    56    2.8110E-01  3.3984E-04   2.8076E-01  0.000E+00  0.000E+00  0.000E+00  1.23768E+02  4.182E-01  2.313E+00  3.701E-04  0.000E+00  3.398E-04
   1    4   57     1    57    2.8076E-01  3.3970E-04   2.8042E-01  0.000E+00  0.000E+00  0.000E+00  1.23468E+02  4.180E-01  2.313E+00  3.700E-04  0.000E+00  3.397E-04
   1    4   58     1    58    2.8042E-01  3.3957E-04   2.8008E-01  0.000E+00  0.000E+00  0.000E+00  1.23168E+02  4.178E-01  2.312E+00  3.700E-04  0.000E+00  3.396E-04
   1    4   59     1    59    2.8008E-01  3.3943E-04   2.7974E-01  0.000E+00  0.000E+00  0.000E+00  1.22868E+02  4.176E-01  2.312E+00  3.699E-04  0.000E+00  3.394E-04
   1    4   60     1    60    2.7974E-01  3.3929E-04   2.7940E-01  0.000E+00  0.000E+00  0.000E+00  1.22567E+02  4.174E-01  2.312E+00  3.698E-04  0.000E+00  3.393E-04
   1    4   61     1    61    2.7940E-01  3.3916E-04   2.7906E-01  0.000E+00  0.000E+00  0.000E+00  1.22267E+02  4.172E-01  2.312E+00  3.698E-04  0.000E+00  3.392E-04
   1    4   62     1    62    2.7906E-01  3.3902E-04   2.7872E-01  0.000E+00  0.000E+00  0.000E+00  1.21967E+02  4.170E-01  2.311E+00  3.697E-04  0.000E+00  3.390E-04
   1    4   63     1    63    2.7872E-01  3.3889E-04   2.7838E-01  0.000E+00  0.000E+00  0.000E+00  1.21667E+02  4.168E-01  2.311E+00  3.696E-04  0.000E+00  3.389E-04
   1    4   64     1    64    2.7838E-01  3.3875E-04   2.7804E-01  0.000E+00  0.000E+00  0.000E+00  1.21367E+02  4.166E-01  2.311E+00  3.696E-04  0.000E+00  3.387E-04
   1    4   65     1    65    2.7804E-01  3.3861E-04   2.7771E-01  0.000E+00  0.000E+00  0.000E+00  1.21066E+02  4.164E-01  2.311E+00  3.695E-04  0.000E+00  3.386E-04
   1    4   66     1    66    2.7771E-01  3.3848E-04   2.7737E-01  0.000E+00  0.000E+00  0.000E+00  1.20766E+02  4.162E-01  2.310E+00  3.694E-04  0.000E+00  3.385E-04
   1    4   67     1    67    2.7737E-01  3.3834E-04   2.7703E-01  0.000E+00  0.000E+00  0.000E+00  1.20466E+02  4.160E-01  2.310E+00  3.694E-04  0.000E+00  3.383E-04
   1    4   68     1    68    2.7703E-01  3.3820E-04   2.7669E-01  0.000E+00  0.000E+00  0.000E+00  1.20166E+02  4.158E-01  2.310E+00  3.693E-04  0.000E+00  3.382E-04
   1    4   69     1    69    2.7669E-01  3.3807E-04   2.7635E-01  0.000E+00  0.000E+00  0.000E+00  1.19866E+02  4.156E-01  2.310E+00  3.692E-04  0.000E+00  3.381E-04
   1    4   70     1    70    2.7635E-01  3.3793E-04   2.7601E-01  0.000E+00  0.000E+00  0.000E+00  1.19565E+02  4.154E-01  2.309E+00  3.692E-04  0.000E+00  3.379E-04
   1    4   71     1    71    2.7601E-01  3.3779E-04   2.7568E-01  0.000E+00  0.000E+00  0.000E+00  1.19265E+02  4.152E-01  2.309E+00  3.691E-04  0.000E+00  3.378E-04
   1    4   72     1    72    2.7568E-01  3.3766E-04   2.7534E-01  0.000E+00  0.000E+00  0.000E+00  1.18965E+02  4.150E-01  2.309E+00  3.690E-04  0.000E+00  3.377E-04
   1    4   73     1    73    2.7534E-01  3.3752E-04   2.7500E-01  0.000E+00  0.000E+00  0.000E+00  1.18665E+02  4.148E-01  2.309E+00  3.690E-04  0.000E+00  3.375E-04
   1    4   74     1    74    2.7500E-01  3.3739E-04   2.7466E-01  0.000E+00  0.000E+00  0.000E+00  1.18365E+02  4.146E-01  2.309E+00  3.689E-04  0.000E+00  3.374E-04
   1    4   75     1    75    2.7466E-01  3.3725E-04   2.7433E-01  0.000E+00  0.000E+00  0.000E+00  1.18064E+02  4.144E-01  2.308E+00  3.688E-04  0.000E+00  3.373E-04
   1    4   76     1    76    2.7433E-01  3.3711E-04   2.7399E-01  0.000E+00  0.000E+00  0.000E+00  1.17764E+02  4.142E-01  2.308E+00  3.688E-04  0.000E+00  3.371E-04
   1    4   77     1    77    2.7399E-01  3.3698E-04   2.7365E-01  0.000E+00  0.000E+00  0.000E+00  1.17464E+02  4.140E-01  2.308E+00  3.687E-04  0.000E+00  3.370E-04
   1    4   78     1    78    2.7365E-01  3.3684E-04   2.7332E-01  0.000E+00  0.000E+00  0.000E+00  1.17164E+02  4.138E-01  2.308E+00  3.686E-04  0.000E+00  3.368E-04
   1    4   79     1    79    2.7332E-01  3.3671E-04   2.7298E-01  0.000E+00  0.000E+00  0.000E+00  1.16864E+02  4.136E-01  2.307E+00  3.686E-04  0.000E+00  3.367E-04
   1    4   80     1    80    2.7298E-01  3.3657E-04   2.7264E-01  0.000E+00  0.000E+00  0.000E+00  1.16563E+02  4.134E-01  2.307E+00  3.685E-04  0.000E+00  3.366E-04
   1    4   81     1    81    2.7264E-01  3.3643E-04   2.7231E-01  0.000E+00  0.000E+00  0.000E+00  1.16263E+02  4.132E-01  2.307E+00  3.684E-04  0.000E+00  3.364E-04
   1    4   82     1    82    2.7231E-01  3.3630E-04   2.7197E-01  0.000E+00  0.000E+00  0.000E+00  1.15963E+02  4.129E-01  2.307E+00  3.684E-04  0.000E+00  3.363E-04
   1    4   83     1    83    2.7197E-01  3.3616E-04   2.7163E-01  0.000E+00  0.000E+00  0.000E+00  1.15663E+02  4.127E-01  2.306E+00  3.683E-04  0.000E+00  3.362E-04
   1    4   84     1    84    2.7163E-01  3.3603E-04   2.7130E-01  0.000E+00  0.000E+00  0.000E+00  1.15363E+02  4.125E-01  2.306E+00  3.682E-04  0.000E+00  3.360E-04
   1    4   85     1    85    2.7130E-01  3.3589E-04   2.7096E-01  0.000E+00  0.000E+00  0.000E+00  1.15062E+02  4.123E-01  2.306E+00  3.682E-04  0.000E+00  3.359E-04
   1    4   86     1    86    2.7096E-01  3.3575E-04   2.7063E-01  0.000E+00  0.000E+00  0.000E+00  1.14762E+02  4.121E-01  2.306E+00  3.681E-04  0.000E+00  3.358E-04
   1    4   87     1    87    2.7063E-01  3.3562E-04   2.7029E-01  0.000E+00  0.000E+00  0.000E+00  1.14462E+02  4.119E-01  2.305E+00  3.680E-04  0.000E+00  3.356E-04
   1    4   88     1    88    2.7029E-01  3.3548E-04   2.6996E-01  0.000E+00  0.000E+00  0.000E+00  1.14162E+02  4.117E-01  2.305E+00  3.680E-04  0.000E+00  3.355E-04
   1    4   89     1    89    2.6996E-01  3.3535E-04   2.6962E-01  0.000E+00  0.000E+00  0.000E+00  1.13862E+02  4.115E-01  2.305E+00  3.679E-04  0.000E+00  3.353E-04
   1    4   90     1    90    2.6962E-01  3.3521E-04   2.6928E-01  0.000E+00  0.000E+00  0.000E+00  1.13561E+02  4.113E-01  2.305E+00  3.678E-04  0.000E+00  3.352E-04
   1    4   91     1    91    2.6928E-01  3.3507E-04   2.6895E-01  0.000E+00  0.000E+00  0.000E+00  1.13261E+02  4.111E-01  2.304E+00  3.678E-04  0.000E+00  3.351E-04
   1    4   92     1    92    2.6895E-01  3.3494E-04   2.6861E-01  0.000E+00  0.000E+00  0.000E+00  1.12961E+02  4.109E-01  2.304E+00  3.677E-04  0.000E+00  3.349E-04
   1    4   93     1    93    2.6861E-01  3.3480E-04   2.6828E-01  0.000E+00  0.000E+00  0.000E+00  1.12661E+02  4.107E-01  2.304E+00  3.676E-04  0.000E+00  3.348E-04
   1    4   94     1    94    2.6828E-01  3.3467E-04   2.6795E-01  0.000E+00  0.000E+00  0.000E+00  1.12360E+02  4.105E-01  2.304E+00  3.676E-04  0.000E+00  3.347E-04
   1    4   95     1    95    2.6795E-01  3.3453E-04   2.6761E-01  0.000E+00  0.000E+00  0.000E+00  1.12060E+02  4.103E-01  2.303E+00  3.675E-04  0.000E+00  3.345E-04
   1    4   96     1    96    2.6761E-01  3.3440E-04   2.6728E-01  0.000E+00  0.000E+00  0.000E+00  1.11760E+02  4.101E-01  2.303E+00  3.674E-04  0.000E+00  3.344E-04
   1    4   97     1    97    2.6728E-01  3.3426E-04   2.6694E-01  0.000E+00  0.000E+00  0.000E+00  1.11460E+02  4.099E-01  2.303E+00  3.674E-04  0.000E+00  3.343E-04
   1    4   98     1    98    2.6694E-01  3.3412E-04   2.6661E-01  0.000E+00  0.000E+00  0.000E+00  1.11160E+02  4.097E-01  2.303E+00  3.673E-04  0.000E+00  3.341E-04
   1    4   99     1    99    2.6661E-01  3.3399E-04   2.6627E-01  0.000E+00  0.000E+00  0.000E+00  1.10859E+02  4.095E-01  2.302E+00  3.672E-04  0.000E+00  3.340E-04
   1    4  100     1   100    2.6627E-01  3.3385E-04   2.6594E-01  0.000E+00  0.000E+00  0.000E+00  1.10559E+02  4.093E-01  2.302E+00  3.672E-04  0.000E+00  3.339E-04



1
  VOLUMETRIC BUDGET FOR UNSATURATED ZONE BENEATH STREAMS AT END OF TIME STEP    10 STRESS PERIOD   1
  ------------------------------------------------------------------------------------------------

    CUMULATIVE VOLUMES             L**3    RATES FOR THIS TIME STEP         L**3/T
    ------------------                     ------------------------


          STREAM LOSS =         8553.5381            STREAM LOSS =        3.4060E-02
    CHANGE IN STORAGE =         8553.5381      CHANGE IN STORAGE =        3.4060E-02
       RECHARGE TO GW =            0.0000         RECHARGE TO GW =            0.0000

             TOTAL IN =         8553.5381               TOTAL IN =        3.4060E-02

            TOTAL OUT =         8553.5381              TOTAL OUT =        3.4060E-02

             IN - OUT =            0.0000               IN - OUT =       -3.7253E-09

  PERCENT DISCREPANCY =            0.00      PERCENT DISCREPANCY =            -0.00



1
              HEAD IN LAYER   1 AT END OF TIME STEP  10 IN STRESS PERIOD    1
  ---------------------------------------------------------------------------

          1      2      3      4      5      6      7      8      9     10
         11     12     13     14     15     16     17     18     19     20
         21     22     23     24     25     26     27     28     29     30
         31     32     33     34     35     36     37     38     39     40
         41     42     43     44     45     46     47     48     49     50
         51     52     53     54     55     56     57     58     59     60
         61     62     63     64     65     66     67     68     69     70
         71     72     73     74     75     76     77     78     79     80
         81     82     83     84     85     86     87     88     89     90
         91     92     93     94     95     96     97     98     99    100
 .........................................................................
   1   124.9  118.2  112.4  108.3  106.0  104.9  104.3  104.1  104.0  104.0
       104.0  104.0  104.0  104.0  104.0  104.0  104.0  104.0  104.0  104.0
       104.0  104.0  104.0  104.0  104.0  104.0  104.0  104.0  104.0  104.0
       104.0  104.0  104.0  104.0  104.0  104.0  104.0  104.0  104.0  104.0
       104.0  104.0  104.0  104.0  104.0  104.0  104.0  104.0  104.0  104.0
       104.0  104.0  104.0  104.0  104.0  104.0  104.0  104.0  104.0  104.0
       104.0  104.0  104.0  104.0  104.0  104.0  104.0  104.0  104.0  104.0
       104.0  104.0  104.0  104.0  104.0  104.0  104.0  104.0  104.0  104.0
       104.0  104.0  104.0  104.0  104.0  104.0  104.0  104.0  104.0  104.0
       104.0  104.0  104.0  104.0  104.0  104.0  104.0  104.0  104.0  104.0
   2   124.9  118.2  112.4  108.3  106.0  104.9  104.3  104.1  104.0  104.0
       104.0  104.0  104.0  104.0  104.0  104.0  104.0  104.0  104.0  104.0
       104.0  104.0  104.0  104.0  104.0  104.0  104.0  104.0  104.0  104.0
       104.0  104.0  104.0  104.0  104.0  104.0  104.0  104.0  104.0  104.0
       104.0  104.0  104.0  104.0  104.0  104.0  104.0  104.0  104.0  104.0
       104.0  104.0  104.0  104.0  104.0  104.0  104.0  104.0  104.0  104.0
       104.0  104.0  104.0  104.0  104.0  104.0  104.0  104.0  104.0  104.0
       104.0  104.0  104.0  104.0  104.0  104.0  104.0  104.0  104.0  104.0
       104.0  104.0  104.0  104.0  104.0  104.0  104.0  104.0  104.0  104.0
       104.0  104.0  104.0  104.0  104.0  104.0  104.0  104.0  104.0  104.0
   3   124.9  118.2  112.4  108.3  106.0  104.9  104.3  104.1  104.0  104.0
       104.0  104.0  104.0  104.0  104.0  104.0  104.0  104.0  104.0  104.0
       104.0  104.0  104.0  104.0  104.0  104.0  104.0  104.0  104.0  104.0
       104.0  104.0  104.0  104.0  104.0  104.0  104.0  104.0  104.0  104.0
       104.0  104.0  104.0  104.0  104.0  104.0  104.0  104.0  104.0  104.0
       104.0  104.0  104.0  104.0  104.0  104.0  104.0  104.0  104.0  104.0
       104.0  104.0  104.0  104.0  104.0  104.0  104.0  104.0  104.0  104.0
       104.0  104.0  104.0  104.0  104.0  104.0  104.0  104.0  104.0  104.0
       104.0  104.0  104.0  104.0  104.0  104.0  104.0  104.0  104.0  104.0
       104.0  104.0  104.0  104.0  104.0  104.0  104.0  104.0  104.0  104.0
   4   124.9  118.2  112.4  108.3  106.0  104.9  104.3  104.1  104.0  104.0
       104.0  104.0  104.0  104.0  104.0  104.0  104.0  104.0  104.0  104.0
       104.0  104.0  104.0  104.0  104.0  104.0  104.0  104.0  104.0  104.0
       104.0  104.0  104.0  104.0  104.0  104.0  104.0  104.0  104.0  104.0
       104.0  104.0  104.0  104.0  104.0  104.0  104.0  104.0  104.0  104.0
       104.0  104.0  104.0  104.0  104.0  104.0  104.0  104.0  104.0  104.0
       104.0  104.0  104.0  104.0  104.0  104.0  104.0  104.0  104.0  104.0
       104.0  104.0  104.0  104.0  104.0  104.0  104.0  104.0  104.0  104.0
       104.0  104.0  104.0  104.0  104.0  104.0  104.0  104.0  104.0  104.0
       104.0  104.0  104.0  104.0  104.0  104.0  104.0  104.0  104.0  104.0
   5   124.9  118.2  112.4  108.3  106.0  104.9  104.3  104.1  104.0  104.0
       104.0  104.0  104.0  104.0  104.0  104.0  104.0  104.0  104.0  104.0
       104.0  104.0  104.0  104.0  104.0  104.0  104.0  104.0  104.0  104.0
       104.0  104.0  104.0  104.0  104.0  104.0  104.0  104.0  104.0  104.0
       104.0  104.0  104.0  104.0  104.0  104.0  104.0  104.0  104.0  104.0
       104.0  104.0  104.0  104.0  104.0  104.0  104.0  104.0  104.0  104.0
       104.0  104.0  104.0  104.0  104.0  104.0  104.0  104.0  104.0  104.0
       104.0  104.0  104.0  104.0  104.0  104.0  104.0  104.0  104.0  104.0
       104.0  104.0  104.0  104.0  104.0  104.0  104.0  104.0  104.0  104.0
       104.0  104.0  104.0  104.0  104.0  104.0  104.0  104.0  104.0  104.0
   6   124.9  118.2  112.4  108.3  106.0  104.9  104.3  104.1  104.0  104.0
       104.0  104.0  104.0  104.0  104.0  104.0  104.0  104.0  104.0  104.0
       104.0  104.0  104.0  104.0  104.0  104.0  104.0  104.0  104.0  104.0
       104.0  104.0  104.0  104.0  104.0  104.0  104.0  104.0  104.0  104.0
       104.0  104.0  104.0  104.0  104.0  104.0  104.0  104.0  104.0  104.0
       104.0  104.0  104.0  104.0  104.0  104.0  104.0  104.0  104.0  104.0
       104.0  104.0  104.0  104.0  104.0  104.0  104.0  104.0  104.0  104.0
       104.0  104.0  104.0  104.0  104.0  104.0  104.0  104.0  104.0  104.0
       104.0  104.0  104.0  104.0  104.0  104.0  104.0  104.0  104.0  104.0
       104.0  104.0  104.0  104.0  104.0  104.0  104.0  104.0  104.0  104.0
   7   124.9  118.2  112.4  108.3  106.0  104.9  104.3  104.1  104.0  104.0
       104.0  104.0  104.0  104.0  104.0  104.0  104.0  104.0  104.0  104.0
       104.0  104.0  104.0  104.0  104.0  104.0  104.0  104.0  104.0  104.0
       104.0  104.0  104.0  104.0  104.0  104.0  104.0  104.0  104.0  104.0
       104.0  104.0  104.0  104.0  104.0  104.0  104.0  104.0  104.0  104.0
       104.0  104.0  104.0  104.0  104.0  104.0  104.0  104.0  104.0  104.0
       104.0  104.0  104.0  104.0  104.0  104.0  104.0  104.0  104.0  104.0
       104.0  104.0  104.0  104.0  104.0  104.0  104.0  104.0  104.0  104.0
       104.0  104.0  104.0  104.0  104.0  104.0  104.0  104.0  104.0  104.0
       104.0  104.0  104.0  104.0  104.0  104.0  104.0  104.0  104.0  104.0
1
  VOLUMETRIC BUDGET FOR ENTIRE MODEL AT END OF TIME STEP   10, STRESS PERIOD   1
  ------------------------------------------------------------------------------

     CUMULATIVE VOLUMES      L**3       RATES FOR THIS TIME STEP      L**3/T
     ------------------                 ------------------------

           IN:                                      IN:
           ---                                      ---
             STORAGE =           8.4566               STORAGE =       2.3365E-05
       CONSTANT HEAD =           0.0000         CONSTANT HEAD =           0.0000
     HEAD DEP BOUNDS =     1228937.1250       HEAD DEP BOUNDS =           1.9780
      STREAM LEAKAGE =           0.0000        STREAM LEAKAGE =           0.0000

            TOTAL IN =     1228945.6250              TOTAL IN =           1.9780

          OUT:                                     OUT:
          ----                                     ----
             STORAGE =     1228952.1250               STORAGE =           1.9782
       CONSTANT HEAD =           0.0000         CONSTANT HEAD =           0.0000
     HEAD DEP BOUNDS =           0.0000       HEAD DEP BOUNDS =           0.0000
      STREAM LEAKAGE =           0.0000        STREAM LEAKAGE =           0.0000

           TOTAL OUT =     1228952.1250             TOTAL OUT =           1.9782

            IN - OUT =          -6.5000              IN - OUT =      -2.4962E-04

 PERCENT DISCREPANCY =          -0.00     PERCENT DISCREPANCY =          -0.01






         TIME SUMMARY AT END OF TIME STEP   10 IN STRESS PERIOD    1
                    SECONDS     MINUTES      HOURS       DAYS        YEARS
                    -----------------------------------------------------------
   TIME STEP LENGTH  37155.      619.25      10.321     0.43004     1.17738E-03
 STRESS PERIOD TIME 2.51132E+05  4185.5      69.759      2.9066     7.95791E-03
         TOTAL TIME 2.51132E+05  4185.5      69.759      2.9066     7.95791E-03
1

 SOLVING FOR HEAD 

 NO OUTPUT CONTROL FOR STRESS PERIOD    1   TIME STEP   11

 SOLVING FOR HEAD 

 NO OUTPUT CONTROL FOR STRESS PERIOD    1   TIME STEP   12

 SOLVING FOR HEAD 

 NO OUTPUT CONTROL FOR STRESS PERIOD    1   TIME STEP   13

 SOLVING FOR HEAD 

 NO OUTPUT CONTROL FOR STRESS PERIOD    1   TIME STEP   14

 SOLVING FOR HEAD 

 NO OUTPUT CONTROL FOR STRESS PERIOD    1   TIME STEP   15

 SOLVING FOR HEAD 

 NO OUTPUT CONTROL FOR STRESS PERIOD    1   TIME STEP   16

 SOLVING FOR HEAD 

 NO OUTPUT CONTROL FOR STRESS PERIOD    1   TIME STEP   17

 SOLVING FOR HEAD 

 NO OUTPUT CONTROL FOR STRESS PERIOD    1   TIME STEP   18

 SOLVING FOR HEAD 

 NO OUTPUT CONTROL FOR STRESS PERIOD    1   TIME STEP   19

 SOLVING FOR HEAD 

 NO OUTPUT CONTROL FOR STRESS PERIOD    1   TIME STEP   20

 SOLVING FOR HEAD 

 NO OUTPUT CONTROL FOR STRESS PERIOD    1   TIME STEP   21

 SOLVING FOR HEAD 

 NO OUTPUT CONTROL FOR STRESS PERIOD    1   TIME STEP   22

 SOLVING FOR HEAD 

 NO OUTPUT CONTROL FOR STRESS PERIOD    1   TIME STEP   23

 SOLVING FOR HEAD 

 NO OUTPUT CONTROL FOR STRESS PERIOD    1   TIME STEP   24

 SOLVING FOR HEAD 

 NO OUTPUT CONTROL FOR STRESS PERIOD    1   TIME STEP   25

 SOLVING FOR HEAD 

 NO OUTPUT CONTROL FOR STRESS PERIOD    1   TIME STEP   26

 SOLVING FOR HEAD 

 NO OUTPUT CONTROL FOR STRESS PERIOD    1   TIME STEP   27

 SOLVING FOR HEAD 

 NO OUTPUT CONTROL FOR STRESS PERIOD    1   TIME STEP   28

 SOLVING FOR HEAD 

 NO OUTPUT CONTROL FOR STRESS PERIOD    1   TIME STEP   29

 SOLVING FOR HEAD 

 OUTPUT CONTROL FOR STRESS PERIOD    1   TIME STEP   30
    PRINT HEAD FOR ALL LAYERS
    PRINT BUDGET
    SAVE BUDGET

  HEAD DEP BOUNDS   PERIOD    1   STEP  30
 BOUNDARY      1   LAYER   1   ROW     1   COL     1   RATE    9.240820E-02
 BOUNDARY      2   LAYER   1   ROW     2   COL     1   RATE    9.233204E-02
 BOUNDARY      3   LAYER   1   ROW     3   COL     1   RATE    9.083150E-02
 BOUNDARY      4   LAYER   1   ROW     4   COL     1   RATE    6.513482E-02
 BOUNDARY      5   LAYER   1   ROW     5   COL     1   RATE    9.083150E-02
 BOUNDARY      6   LAYER   1   ROW     6   COL     1   RATE    9.233204E-02
 BOUNDARY      7   LAYER   1   ROW     7   COL     1   RATE    9.240820E-02



 STREAM LISTING     PERIOD      1   STEP       30

 LAYER ROW COL. STREAM  RCH.   FLOW INTO    STREAM     FLOW OUT OF   OVRLND.    DIRECT     STREAM      STREAM      STREAM     STREAM  STREAMBED   FLOW TO   CHNG. UNSAT. 
                SEG.NO.  NO.   STRM. RCH.    LOSS       STRM. RCH.   RUNOFF     PRECIP       ET         HEAD        DEPTH      WIDTH  CONDCTNC.   WAT. TAB.

   1    4    1     1     1    3.0000E-01  3.4737E-04   2.9965E-01  0.000E+00  0.000E+00  0.000E+00  1.40279E+02  4.294E-01  2.326E+00  3.737E-04  0.000E+00  3.474E-04
   1    4    2     1     2    2.9965E-01  3.4724E-04   2.9931E-01  0.000E+00  0.000E+00  0.000E+00  1.39979E+02  4.292E-01  2.326E+00  3.737E-04  0.000E+00  3.472E-04
   1    4    3     1     3    2.9931E-01  3.4710E-04   2.9896E-01  0.000E+00  0.000E+00  0.000E+00  1.39679E+02  4.290E-01  2.326E+00  3.736E-04  0.000E+00  3.471E-04
   1    4    4     1     4    2.9896E-01  3.4696E-04   2.9861E-01  0.000E+00  0.000E+00  0.000E+00  1.39379E+02  4.288E-01  2.326E+00  3.735E-04  0.000E+00  3.470E-04
   1    4    5     1     5    2.9861E-01  3.4682E-04   2.9826E-01  0.000E+00  0.000E+00  0.000E+00  1.39079E+02  4.286E-01  2.325E+00  3.735E-04  0.000E+00  3.468E-04
   1    4    6     1     6    2.9826E-01  3.4669E-04   2.9792E-01  0.000E+00  0.000E+00  0.000E+00  1.38778E+02  4.284E-01  2.325E+00  3.734E-04  0.000E+00  3.467E-04
   1    4    7     1     7    2.9792E-01  3.4655E-04   2.9757E-01  0.000E+00  0.000E+00  0.000E+00  1.38478E+02  4.282E-01  2.325E+00  3.733E-04  0.000E+00  3.466E-04
   1    4    8     1     8    2.9757E-01  3.4641E-04   2.9722E-01  0.000E+00  0.000E+00  0.000E+00  1.38178E+02  4.280E-01  2.325E+00  3.733E-04  0.000E+00  3.464E-04
   1    4    9     1     9    2.9722E-01  3.4628E-04   2.9688E-01  0.000E+00  0.000E+00  0.000E+00  1.37878E+02  4.278E-01  2.324E+00  3.732E-04  0.000E+00  3.463E-04
   1    4   10     1    10    2.9688E-01  3.4614E-04   2.9653E-01  0.000E+00  0.000E+00  0.000E+00  1.37578E+02  4.276E-01  2.324E+00  3.732E-04  0.000E+00  3.461E-04
   1    4   11     1    11    2.9653E-01  3.4600E-04   2.9619E-01  0.000E+00  0.000E+00  0.000E+00  1.37277E+02  4.274E-01  2.324E+00  3.731E-04  0.000E+00  3.460E-04
   1    4   12     1    12    2.9619E-01  3.4586E-04   2.9584E-01  0.000E+00  0.000E+00  0.000E+00  1.36977E+02  4.272E-01  2.324E+00  3.730E-04  0.000E+00  3.459E-04
   1    4   13     1    13    2.9584E-01  3.4573E-04   2.9549E-01  0.000E+00  0.000E+00  0.000E+00  1.36677E+02  4.270E-01  2.323E+00  3.730E-04  0.000E+00  3.457E-04
   1    4   14     1    14    2.9549E-01  3.4559E-04   2.9515E-01  0.000E+00  0.000E+00  0.000E+00  1.36377E+02  4.268E-01  2.323E+00  3.729E-04  0.000E+00  3.456E-04
   1    4   15     1    15    2.9515E-01  3.4545E-04   2.9480E-01  0.000E+00  0.000E+00  0.000E+00  1.36077E+02  4.266E-01  2.323E+00  3.728E-04  0.000E+00  3.455E-04
   1    4   16     1    16    2.9480E-01  3.4531E-04   2.9446E-01  0.000E+00  0.000E+00  0.000E+00  1.35776E+02  4.264E-01  2.323E+00  3.728E-04  0.000E+00  3.453E-04
   1    4   17     1    17    2.9446E-01  3.4518E-04   2.9411E-01  0.000E+00  0.000E+00  0.000E+00  1.35476E+02  4.262E-01  2.322E+00  3.727E-04  0.000E+00  3.452E-04
   1    4   18     1    18    2.9411E-01  3.4504E-04   2.9377E-01  0.000E+00  0.000E+00  0.000E+00  1.35176E+02  4.260E-01  2.322E+00  3.726E-04  0.000E+00  3.450E-04
   1    4   19     1    19    2.9377E-01  3.4490E-04   2.9342E-01  0.000E+00  0.000E+00  0.000E+00  1.34876E+02  4.258E-01  2.322E+00  3.726E-04  0.000E+00  3.449E-04
   1    4   20     1    20    2.9342E-01  3.4477E-04   2.9308E-01  0.000E+00  0.000E+00  0.000E+00  1.34576E+02  4.256E-01  2.322E+00  3.725E-04  0.000E+00  3.448E-04
   1    4   21     1    21    2.9308E-01  3.4463E-04   2.9273E-01  0.000E+00  0.000E+00  0.000E+00  1.34275E+02  4.254E-01  2.321E+00  3.724E-04  0.000E+00  3.446E-04
   1    4   22     1    22    2.9273E-01  3.4449E-04   2.9239E-01  0.000E+00  0.000E+00  0.000E+00  1.33975E+02  4.252E-01  2.321E+00  3.724E-04  0.000E+00  3.445E-04
   1    4   23     1    23    2.9239E-01  3.4435E-04   2.9205E-01  0.000E+00  0.000E+00  0.000E+00  1.33675E+02  4.250E-01  2.321E+00  3.723E-04  0.000E+00  3.444E-04
   1    4   24     1    24    2.9205E-01  3.4422E-04   2.9170E-01  0.000E+00  0.000E+00  0.000E+00  1.33375E+02  4.248E-01  2.321E+00  3.722E-04  0.000E+00  3.442E-04
   1    4   25     1    25    2.9170E-01  3.4408E-04   2.9136E-01  0.000E+00  0.000E+00  0.000E+00  1.33075E+02  4.246E-01  2.320E+00  3.722E-04  0.000E+00  3.441E-04
   1    4   26     1    26    2.9136E-01  3.4394E-04   2.9101E-01  0.000E+00  0.000E+00  0.000E+00  1.32774E+02  4.244E-01  2.320E+00  3.721E-04  0.000E+00  3.439E-04
   1    4   27     1    27    2.9101E-01  3.4381E-04   2.9067E-01  0.000E+00  0.000E+00  0.000E+00  1.32474E+02  4.242E-01  2.320E+00  3.720E-04  0.000E+00  3.438E-04
   1    4   28     1    28    2.9067E-01  3.4367E-04   2.9033E-01  0.000E+00  0.000E+00  0.000E+00  1.32174E+02  4.240E-01  2.320E+00  3.720E-04  0.000E+00  3.437E-04
   1    4   29     1    29    2.9033E-01  3.4353E-04   2.8998E-01  0.000E+00  0.000E+00  0.000E+00  1.31874E+02  4.237E-01  2.319E+00  3.719E-04  0.000E+00  3.435E-04
   1    4   30     1    30    2.8998E-01  3.4339E-04   2.8964E-01  0.000E+00  0.000E+00  0.000E+00  1.31574E+02  4.235E-01  2.319E+00  3.718E-04  0.000E+00  3.434E-04
   1    4   31     1    31    2.8964E-01  3.4326E-04   2.8930E-01  0.000E+00  0.000E+00  0.000E+00  1.31273E+02  4.233E-01  2.319E+00  3.718E-04  0.000E+00  3.433E-04
   1    4   32     1    32    2.8930E-01  3.4312E-04   2.8895E-01  0.000E+00  0.000E+00  0.000E+00  1.30973E+02  4.231E-01  2.319E+00  3.717E-04  0.000E+00  3.431E-04
   1    4   33     1    33    2.8895E-01  3.4298E-04   2.8861E-01  0.000E+00  0.000E+00  0.000E+00  1.30673E+02  4.229E-01  2.319E+00  3.716E-04  0.000E+00  3.430E-04
   1    4   34     1    34    2.8861E-01  3.4285E-04   2.8827E-01  0.000E+00  0.000E+00  0.000E+00  1.30373E+02  4.227E-01  2.318E+00  3.716E-04  0.000E+00  3.428E-04
   1    4   35     1    35    2.8827E-01  3.4271E-04   2.8792E-01  0.000E+00  0.000E+00  0.000E+00  1.30073E+02  4.225E-01  2.318E+00  3.715E-04  0.000E+00  3.427E-04
   1    4   36     1    36    2.8792E-01  3.4257E-04   2.8758E-01  0.000E+00  0.000E+00  0.000E+00  1.29772E+02  4.223E-01  2.318E+00  3.714E-04  0.000E+00  3.426E-04
   1    4   37     1    37    2.8758E-01  3.4244E-04   2.8724E-01  0.000E+00  0.000E+00  0.000E+00  1.29472E+02  4.221E-01  2.318E+00  3.714E-04  0.000E+00  3.424E-04
   1    4   38     1    38    2.8724E-01  3.4230E-04   2.8690E-01  0.000E+00  0.000E+00  0.000E+00  1.29172E+02  4.219E-01  2.317E+00  3.713E-04  0.000E+00  3.423E-04
   1    4   39     1    39    2.8690E-01  3.4216E-04   2.8655E-01  0.000E+00  0.000E+00  0.000E+00  1.28872E+02  4.217E-01  2.317E+00  3.712E-04  0.000E+00  3.422E-04
   1    4   40     1    40    2.8655E-01  3.4203E-04   2.8621E-01  0.000E+00  0.000E+00  0.000E+00  1.28572E+02  4.215E-01  2.317E+00  3.712E-04  0.000E+00  3.420E-04
   1    4   41     1    41    2.8621E-01  3.4189E-04   2.8587E-01  0.000E+00  0.000E+00  0.000E+00  1.28271E+02  4.213E-01  2.317E+00  3.711E-04  0.000E+00  3.419E-04
   1    4   42     1    42    2.8587E-01  3.4175E-04   2.8553E-01  0.000E+00  0.000E+00  0.000E+00  1.27971E+02  4.211E-01  2.316E+00  3.710E-04  0.000E+00  3.418E-04
   1    4   43     1    43    2.8553E-01  3.4162E-04   2.8519E-01  0.000E+00  0.000E+00  0.000E+00  1.27671E+02  4.209E-01  2.316E+00  3.710E-04  0.000E+00  3.416E-04
   1    4   44     1    44    2.8519E-01  3.4148E-04   2.8485E-01  0.000E+00  0.000E+00  0.000E+00  1.27371E+02  4.207E-01  2.316E+00  3.709E-04  0.000E+00  3.415E-04
   1    4   45     1    45    2.8485E-01  3.4134E-04   2.8450E-01  0.000E+00  0.000E+00  0.000E+00  1.27070E+02  4.205E-01  2.316E+00  3.708E-04  0.000E+00  3.413E-04
   1    4   46     1    46    2.8450E-01  3.4121E-04   2.8416E-01  0.000E+00  0.000E+00  0.000E+00  1.26770E+02  4.203E-01  2.315E+00  3.708E-04  0.000E+00  3.412E-04
   1    4   47     1    47    2.8416E-01  3.4107E-04   2.8382E-01  0.000E+00  0.000E+00  0.000E+00  1.26470E+02  4.201E-01  2.315E+00  3.707E-04  0.000E+00  3.411E-04
   1    4   48     1    48    2.8382E-01  3.4093E-04   2.8348E-01  0.000E+00  0.000E+00  0.000E+00  1.26170E+02  4.199E-01  2.315E+00  3.706E-04  0.000E+00  3.409E-04
   1    4   49     1    49    2.8348E-01  3.4080E-04   2.8314E-01  0.000E+00  0.000E+00  0.000E+00  1.25870E+02  4.197E-01  2.315E+00  3.706E-04  0.000E+00  3.408E-04
   1    4   50     1    50    2.8314E-01  3.4066E-04   2.8280E-01  0.000E+00  0.000E+00  0.000E+00  1.25569E+02  4.195E-01  2.314E+00  3.705E-04  0.000E+00  3.407E-04
   1    4   51     1    51    2.8280E-01  3.4052E-04   2.8246E-01  0.000E+00  0.000E+00  0.000E+00  1.25269E+02  4.193E-01  2.314E+00  3.704E-04  0.000E+00  3.405E-04
   1    4   52     1    52    2.8246E-01  3.4039E-04   2.8212E-01  0.000E+00  0.000E+00  0.000E+00  1.24969E+02  4.191E-01  2.314E+00  3.704E-04  0.000E+00  3.404E-04
   1    4   53     1    53    2.8212E-01  3.4025E-04   2.8178E-01  0.000E+00  0.000E+00  0.000E+00  1.24669E+02  4.189E-01  2.314E+00  3.703E-04  0.000E+00  3.402E-04
   1    4   54     1    54    2.8178E-01  3.4011E-04   2.8144E-01  0.000E+00  0.000E+00  0.000E+00  1.24369E+02  4.187E-01  2.313E+00  3.702E-04  0.000E+00  3.401E-04
   1    4   55     1    55    2.8144E-01  3.3998E-04   2.8110E-01  0.000E+00  0.000E+00  0.000E+00  1.24068E+02  4.185E-01  2.313E+00  3.702E-04  0.000E+00  3.400E-04
   1    4   56     1    56    2.8110E-01  3.3984E-04   2.8076E-01  0.000E+00  0.000E+00  0.000E+00  1.23768E+02  4.182E-01  2.313E+00  3.701E-04  0.000E+00  3.398E-04
   1    4   57     1    57    2.8076E-01  3.3970E-04   2.8042E-01  0.000E+00  0.000E+00  0.000E+00  1.23468E+02  4.180E-01  2.313E+00  3.700E-04  0.000E+00  3.397E-04
   1    4   58     1    58    2.8042E-01  3.3957E-04   2.8008E-01  0.000E+00  0.000E+00  0.000E+00  1.23168E+02  4.178E-01  2.312E+00  3.700E-04  0.000E+00  3.396E-04
   1    4   59     1    59    2.8008E-01  3.3943E-04   2.7974E-01  0.000E+00  0.000E+00  0.000E+00  1.22868E+02  4.176E-01  2.312E+00  3.699E-04  0.000E+00  3.394E-04
   1    4   60     1    60    2.7974E-01  3.3929E-04   2.7940E-01  0.000E+00  0.000E+00  0.000E+00  1.22567E+02  4.174E-01  2.312E+00  3.698E-04  0.000E+00  3.393E-04
   1    4   61     1    61    2.7940E-01  3.3916E-04   2.7906E-01  0.000E+00  0.000E+00  0.000E+00  1.22267E+02  4.172E-01  2.312E+00  3.698E-04  0.000E+00  3.392E-04
   1    4   62     1    62    2.7906E-01  3.3902E-04   2.7872E-01  0.000E+00  0.000E+00  0.000E+00  1.21967E+02  4.170E-01  2.311E+00  3.697E-04  0.000E+00  3.390E-04
   1    4   63     1    63    2.7872E-01  3.3889E-04   2.7838E-01  0.000E+00  0.000E+00  0.000E+00  1.21667E+02  4.168E-01  2.311E+00  3.696E-04  0.000E+00  3.389E-04
   1    4   64     1    64    2.7838E-01  3.3875E-04   2.7804E-01  0.000E+00  0.000E+00  0.000E+00  1.21367E+02  4.166E-01  2.311E+00  3.696E-04  0.000E+00  3.387E-04
   1    4   65     1    65    2.7804E-01  3.3861E-04   2.7771E-01  0.000E+00  0.000E+00  0.000E+00  1.21066E+02  4.164E-01  2.311E+00  3.695E-04  0.000E+00  3.386E-04
   1    4   66     1    66    2.7771E-01  3.3848E-04   2.7737E-01  0.000E+00  0.000E+00  0.000E+00  1.20766E+02  4.162E-01  2.310E+00  3.694E-04  0.000E+00  3.385E-04
   1    4   67     1    67    2.7737E-01  3.3834E-04   2.7703E-01  0.000E+00  0.000E+00  0.000E+00  1.20466E+02  4.160E-01  2.310E+00  3.694E-04  0.000E+00  3.383E-04
   1    4   68     1    68    2.7703E-01  3.3820E-04   2.7669E-01  0.000E+00  0.000E+00  0.000E+00  1.20166E+02  4.158E-01  2.310E+00  3.693E-04  0.000E+00  3.382E-04
   1    4   69     1    69    2.7669E-01  3.3807E-04   2.7635E-01  0.000E+00  0.000E+00  0.000E+00  1.19866E+02  4.156E-01  2.310E+00  3.692E-04  0.000E+00  3.381E-04
   1    4   70     1    70    2.7635E-01  3.3793E-04   2.7601E-01  0.000E+00  0.000E+00  0.000E+00  1.19565E+02  4.154E-01  2.309E+00  3.692E-04  0.000E+00  3.379E-04
   1    4   71     1    71    2.7601E-01  3.3779E-04   2.7568E-01  0.000E+00  0.000E+00  0.000E+00  1.19265E+02  4.152E-01  2.309E+00  3.691E-04  0.000E+00  3.378E-04
   1    4   72     1    72    2.7568E-01  3.3766E-04   2.7534E-01  0.000E+00  0.000E+00  0.000E+00  1.18965E+02  4.150E-01  2.309E+00  3.690E-04  0.000E+00  3.377E-04
   1    4   73     1    73    2.7534E-01  3.3752E-04   2.7500E-01  0.000E+00  0.000E+00  0.000E+00  1.18665E+02  4.148E-01  2.309E+00  3.690E-04  0.000E+00  3.375E-04
   1    4   74     1    74    2.7500E-01  3.3739E-04   2.7466E-01  0.000E+00  0.000E+00  0.000E+00  1.18365E+02  4.146E-01  2.309E+00  3.689E-04  0.000E+00  3.374E-04
   1    4   75     1    75    2.7466E-01  3.3725E-04   2.7433E-01  0.000E+00  0.000E+00  0.000E+00  1.18064E+02  4.144E-01  2.308E+00  3.688E-04  0.000E+00  3.373E-04
   1    4   76     1    76    2.7433E-01  3.3711E-04   2.7399E-01  0.000E+00  0.000E+00  0.000E+00  1.17764E+02  4.142E-01  2.308E+00  3.688E-04  0.000E+00  3.371E-04
   1    4   77     1    77    2.7399E-01  3.3698E-04   2.7365E-01  0.000E+00  0.000E+00  0.000E+00  1.17464E+02  4.140E-01  2.308E+00  3.687E-04  0.000E+00  3.370E-04
   1    4   78     1    78    2.7365E-01  3.3684E-04   2.7332E-01  0.000E+00  0.000E+00  0.000E+00  1.17164E+02  4.138E-01  2.308E+00  3.686E-04  0.000E+00  3.368E-04
   1    4   79     1    79    2.7332E-01  3.3671E-04   2.7298E-01  0.000E+00  0.000E+00  0.000E+00  1.16864E+02  4.136E-01  2.307E+00  3.686E-04  0.000E+00  3.367E-04
   1    4   80     1    80    2.7298E-01  3.3657E-04   2.7264E-01  0.000E+00  0.000E+00  0.000E+00  1.16563E+02  4.134E-01  2.307E+00  3.685E-04  0.000E+00  3.366E-04
   1    4   81     1    81    2.7264E-01  3.3643E-04   2.7231E-01  0.000E+00  0.000E+00  0.000E+00  1.16263E+02  4.132E-01  2.307E+00  3.684E-04  0.000E+00  3.364E-04
   1    4   82     1    82    2.7231E-01  3.3630E-04   2.7197E-01  0.000E+00  0.000E+00  0.000E+00  1.15963E+02  4.129E-01  2.307E+00  3.684E-04  0.000E+00  3.363E-04
   1    4   83     1    83    2.7197E-01  3.3616E-04   2.7163E-01  0.000E+00  0.000E+00  0.000E+00  1.15663E+02  4.127E-01  2.306E+00  3.683E-04  0.000E+00  3.362E-04
   1    4   84     1    84    2.7163E-01  3.3603E-04   2.7130E-01  0.000E+00  0.000E+00  0.000E+00  1.15363E+02  4.125E-01  2.306E+00  3.682E-04  0.000E+00  3.360E-04
   1    4   85     1    85    2.7130E-01  3.3589E-04   2.7096E-01  0.000E+00  0.000E+00  0.000E+00  1.15062E+02  4.123E-01  2.306E+00  3.682E-04  0.000E+00  3.359E-04
   1    4   86     1    86    2.7096E-01  3.3575E-04   2.7063E-01  0.000E+00  0.000E+00  0.000E+00  1.14762E+02  4.121E-01  2.306E+00  3.681E-04  0.000E+00  3.358E-04
   1    4   87     1    87    2.7063E-01  3.3562E-04   2.7029E-01  0.000E+00  0.000E+00  0.000E+00  1.14462E+02  4.119E-01  2.305E+00  3.680E-04  0.000E+00  3.356E-04
   1    4   88     1    88    2.7029E-01  3.3548E-04   2.6996E-01  0.000E+00  0.000E+00  0.000E+00  1.14162E+02  4.117E-01  2.305E+00  3.680E-04  1.437E-05  3.211E-04
   1    4   89     1    89    2.6996E-01  3.3535E-04   2.6962E-01  0.000E+00  0.000E+00  0.000E+00  1.13862E+02  4.115E-01  2.305E+00  3.679E-04  1.337E-04  2.017E-04
   1    4   90     1    90    2.6962E-01  3.3521E-04   2.6928E-01  0.000E+00  0.000E+00  0.000E+00  1.13561E+02  4.113E-01  2.305E+00  3.678E-04  2.528E-04  8.246E-05
   1    4   91     1    91    2.6928E-01  3.3507E-04   2.6895E-01  0.000E+00  0.000E+00  0.000E+00  1.13261E+02  4.111E-01  2.304E+00  3.678E-04  3.544E-04 -1.935E-05
   1    4   92     1    92    2.6895E-01  3.3494E-04   2.6861E-01  0.000E+00  0.000E+00  0.000E+00  1.12961E+02  4.109E-01  2.304E+00  3.677E-04  3.546E-04 -1.962E-05
   1    4   93     1    93    2.6861E-01  3.3480E-04   2.6828E-01  0.000E+00  0.000E+00  0.000E+00  1.12661E+02  4.107E-01  2.304E+00  3.676E-04  3.544E-04 -1.956E-05
   1    4   94     1    94    2.6828E-01  3.3467E-04   2.6795E-01  0.000E+00  0.000E+00  0.000E+00  1.12360E+02  4.105E-01  2.304E+00  3.676E-04  3.541E-04 -1.942E-05
   1    4   95     1    95    2.6795E-01  3.3453E-04   2.6761E-01  0.000E+00  0.000E+00  0.000E+00  1.12060E+02  4.103E-01  2.303E+00  3.675E-04  3.539E-04 -1.937E-05
   1    4   96     1    96    2.6761E-01  3.3440E-04   2.6728E-01  0.000E+00  0.000E+00  0.000E+00  1.11760E+02  4.101E-01  2.303E+00  3.674E-04  3.537E-04 -1.934E-05
   1    4   97     1    97    2.6728E-01  3.3426E-04   2.6694E-01  0.000E+00  0.000E+00  0.000E+00  1.11460E+02  4.099E-01  2.303E+00  3.674E-04  3.536E-04 -1.931E-05
   1    4   98     1    98    2.6694E-01  3.3412E-04   2.6661E-01  0.000E+00  0.000E+00  0.000E+00  1.11160E+02  4.097E-01  2.303E+00  3.673E-04  3.534E-04 -1.929E-05
   1    4   99     1    99    2.6661E-01  3.3399E-04   2.6627E-01  0.000E+00  0.000E+00  0.000E+00  1.10859E+02  4.095E-01  2.302E+00  3.672E-04  3.533E-04 -1.928E-05
   1    4  100     1   100    2.6627E-01  3.3385E-04   2.6594E-01  0.000E+00  0.000E+00  0.000E+00  1.10559E+02  4.093E-01  2.302E+00  3.672E-04  3.531E-04 -1.927E-05



1
  VOLUMETRIC BUDGET FOR UNSATURATED ZONE BENEATH STREAMS AT END OF TIME STEP    30 STRESS PERIOD   1
  ------------------------------------------------------------------------------------------------

    CUMULATIVE VOLUMES             L**3    RATES FOR THIS TIME STEP         L**3/T
    ------------------                     ------------------------


          STREAM LOSS =        88283.1328            STREAM LOSS =        3.4060E-02
    CHANGE IN STORAGE =        85944.4609      CHANGE IN STORAGE =        3.0121E-02
       RECHARGE TO GW =         2338.6694         RECHARGE TO GW =        3.9392E-03

             TOTAL IN =        88283.1328               TOTAL IN =        3.4060E-02

            TOTAL OUT =        88283.1328              TOTAL OUT =        3.4060E-02

             IN - OUT =            0.0000               IN - OUT =       -3.7253E-09

  PERCENT DISCREPANCY =            0.00      PERCENT DISCREPANCY =            -0.00



1
              HEAD IN LAYER   1 AT END OF TIME STEP  30 IN STRESS PERIOD    1
  ---------------------------------------------------------------------------

          1      2      3      4      5      6      7      8      9     10
         11     12     13     14     15     16     17     18     19     20
         21     22     23     24     25     26     27     28     29     30
         31     32     33     34     35     36     37     38     39     40
         41     42     43     44     45     46     47     48     49     50
         51     52     53     54     55     56     57     58     59     60
         61     62     63     64     65     66     67     68     69     70
         71     72     73     74     75     76     77     78     79     80
         81     82     83     84     85     86     87     88     89     90
         91     92     93     94     95     96     97     98     99    100
 .........................................................................
   1   125.0  122.9  120.8  118.8  116.8  115.0  113.3  111.7  110.3  109.1
       108.0  107.2  106.5  105.9  105.4  105.0  104.8  104.6  104.4  104.3
       104.2  104.1  104.1  104.1  104.0  104.0  104.0  104.0  104.0  104.0
       104.0  104.0  104.0  104.0  104.0  104.0  104.0  104.0  104.0  104.0
       104.0  104.0  104.0  104.0  104.0  104.0  104.0  104.0  104.0  104.0
       104.0  104.0  104.0  104.0  104.0  104.0  104.0  104.0  104.0  104.0
       104.0  104.0  104.0  104.0  104.0  104.0  104.0  104.0  104.0  104.0
       104.0  104.0  104.0  104.0  104.0  104.0  104.0  104.0  104.0  104.0
       104.0  104.0  104.1  104.1  104.1  104.1  104.1  104.1  104.2  104.2
       104.2  104.2  104.2  104.2  104.2  104.2  104.2  104.3  104.3  104.3
   2   125.0  122.9  120.8  118.8  116.8  115.0  113.3  111.7  110.3  109.1
       108.0  107.2  106.5  105.9  105.4  105.0  104.8  104.6  104.4  104.3
       104.2  104.1  104.1  104.1  104.0  104.0  104.0  104.0  104.0  104.0
       104.0  104.0  104.0  104.0  104.0  104.0  104.0  104.0  104.0  104.0
       104.0  104.0  104.0  104.0  104.0  104.0  104.0  104.0  104.0  104.0
       104.0  104.0  104.0  104.0  104.0  104.0  104.0  104.0  104.0  104.0
       104.0  104.0  104.0  104.0  104.0  104.0  104.0  104.0  104.0  104.0
       104.0  104.0  104.0  104.0  104.0  104.0  104.0  104.0  104.0  104.0
       104.0  104.0  104.1  104.1  104.1  104.1  104.1  104.1  104.2  104.2
       104.2  104.2  104.2  104.2  104.2  104.2  104.2  104.3  104.3  104.3
   3   125.0  122.9  120.8  118.8  116.8  115.0  113.3  111.7  110.3  109.1
       108.0  107.2  106.5  105.9  105.4  105.0  104.8  104.6  104.4  104.3
       104.2  104.1  104.1  104.1  104.0  104.0  104.0  104.0  104.0  104.0
       104.0  104.0  104.0  104.0  104.0  104.0  104.0  104.0  104.0  104.0
       104.0  104.0  104.0  104.0  104.0  104.0  104.0  104.0  104.0  104.0
       104.0  104.0  104.0  104.0  104.0  104.0  104.0  104.0  104.0  104.0
       104.0  104.0  104.0  104.0  104.0  104.0  104.0  104.0  104.0  104.0
       104.0  104.0  104.0  104.0  104.0  104.0  104.0  104.0  104.0  104.0
       104.0  104.0  104.1  104.1  104.1  104.1  104.1  104.1  104.2  104.2
       104.2  104.2  104.2  104.2  104.2  104.2  104.2  104.3  104.3  104.3
   4   125.0  122.9  120.8  118.8  116.8  115.0  113.3  111.7  110.3  109.1
       108.0  107.2  106.5  105.9  105.4  105.0  104.8  104.6  104.4  104.3
       104.2  104.1  104.1  104.1  104.0  104.0  104.0  104.0  104.0  104.0
       104.0  104.0  104.0  104.0  104.0  104.0  104.0  104.0  104.0  104.0
       104.0  104.0  104.0  104.0  104.0  104.0  104.0  104.0  104.0  104.0
       104.0  104.0  104.0  104.0  104.0  104.0  104.0  104.0  104.0  104.0
       104.0  104.0  104.0  104.0  104.0  104.0  104.0  104.0  104.0  104.0
       104.0  104.0  104.0  104.0  104.0  104.0  104.0  104.0  104.0  104.0
       104.0  104.0  104.1  104.1  104.1  104.1  104.1  104.1  104.2  104.2
       104.2  104.2  104.2  104.2  104.2  104.2  104.2  104.3  104.3  104.3
   5   125.0  122.9  120.8  118.8  116.8  115.0  113.3  111.7  110.3  109.1
       108.0  107.2  106.5  105.9  105.4  105.0  104.8  104.6  104.4  104.3
       104.2  104.1  104.1  104.1  104.0  104.0  104.0  104.0  104.0  104.0
       104.0  104.0  104.0  104.0  104.0  104.0  104.0  104.0  104.0  104.0
       104.0  104.0  104.0  104.0  104.0  104.0  104.0  104.0  104.0  104.0
       104.0  104.0  104.0  104.0  104.0  104.0  104.0  104.0  104.0  104.0
       104.0  104.0  104.0  104.0  104.0  104.0  104.0  104.0  104.0  104.0
       104.0  104.0  104.0  104.0  104.0  104.0  104.0  104.0  104.0  104.0
       104.0  104.0  104.1  104.1  104.1  104.1  104.1  104.1  104.2  104.2
       104.2  104.2  104.2  104.2  104.2  104.2  104.2  104.3  104.3  104.3
   6   125.0  122.9  120.8  118.8  116.8  115.0  113.3  111.7  110.3  109.1
       108.0  107.2  106.5  105.9  105.4  105.0  104.8  104.6  104.4  104.3
       104.2  104.1  104.1  104.1  104.0  104.0  104.0  104.0  104.0  104.0
       104.0  104.0  104.0  104.0  104.0  104.0  104.0  104.0  104.0  104.0
       104.0  104.0  104.0  104.0  104.0  104.0  104.0  104.0  104.0  104.0
       104.0  104.0  104.0  104.0  104.0  104.0  104.0  104.0  104.0  104.0
       104.0  104.0  104.0  104.0  104.0  104.0  104.0  104.0  104.0  104.0
       104.0  104.0  104.0  104.0  104.0  104.0  104.0  104.0  104.0  104.0
       104.0  104.0  104.1  104.1  104.1  104.1  104.1  104.1  104.2  104.2
       104.2  104.2  104.2  104.2  104.2  104.2  104.2  104.3  104.3  104.3
   7   125.0  122.9  120.8  118.8  116.8  115.0  113.3  111.7  110.3  109.1
       108.0  107.2  106.5  105.9  105.4  105.0  104.8  104.6  104.4  104.3
       104.2  104.1  104.1  104.1  104.0  104.0  104.0  104.0  104.0  104.0
       104.0  104.0  104.0  104.0  104.0  104.0  104.0  104.0  104.0  104.0
       104.0  104.0  104.0  104.0  104.0  104.0  104.0  104.0  104.0  104.0
       104.0  104.0  104.0  104.0  104.0  104.0  104.0  104.0  104.0  104.0
       104.0  104.0  104.0  104.0  104.0  104.0  104.0  104.0  104.0  104.0
       104.0  104.0  104.0  104.0  104.0  104.0  104.0  104.0  104.0  104.0
       104.0  104.0  104.1  104.1  104.1  104.1  104.1  104.1  104.2  104.2
       104.2  104.2  104.2  104.2  104.2  104.2  104.2  104.3  104.3  104.3
1
  VOLUMETRIC BUDGET FOR ENTIRE MODEL AT END OF TIME STEP   30, STRESS PERIOD   1
  ------------------------------------------------------------------------------

     CUMULATIVE VOLUMES      L**3       RATES FOR THIS TIME STEP      L**3/T
     ------------------                 ------------------------

           IN:                                      IN:
           ---                                      ---
             STORAGE =          25.4193               STORAGE =       3.0994E-06
       CONSTANT HEAD =           0.0000         CONSTANT HEAD =           0.0000
     HEAD DEP BOUNDS =     3368252.7500       HEAD DEP BOUNDS =           0.6163
      STREAM LEAKAGE =        2338.6694        STREAM LEAKAGE =       3.9392E-03

            TOTAL IN =     3370617.0000              TOTAL IN =           0.6202

          OUT:                                     OUT:
          ----                                     ----
             STORAGE =     3370599.0000               STORAGE =           0.6200
       CONSTANT HEAD =           0.0000         CONSTANT HEAD =           0.0000
     HEAD DEP BOUNDS =           0.0000       HEAD DEP BOUNDS =           0.0000
      STREAM LEAKAGE =           0.0000        STREAM LEAKAGE =           0.0000

           TOTAL OUT =     3370599.0000             TOTAL OUT =           0.6200

            IN - OUT =          18.0000              IN - OUT =       2.2870E-04

 PERCENT DISCREPANCY =           0.00     PERCENT DISCREPANCY =           0.04






         TIME SUMMARY AT END OF TIME STEP   30 IN STRESS PERIOD    1
                    SECONDS     MINUTES      HOURS       DAYS        YEARS
                    -----------------------------------------------------------
   TIME STEP LENGTH 2.49961E+05  4166.0      69.434      2.8931     7.92080E-03
 STRESS PERIOD TIME 2.59200E+06  43200.      720.00      30.000     8.21355E-02
         TOTAL TIME 2.59200E+06  43200.      720.00      30.000     8.21355E-02
1
1
                            STRESS PERIOD NO.    2, LENGTH =   2592000.    
                            -----------------------------------------------

                              NUMBER OF TIME STEPS =    30

                               MULTIPLIER FOR DELT =     1.100

                            INITIAL TIME STEP SIZE =   15757.40    

 REUSING NON-PARAMETER GHB CELLS FROM LAST STRESS PERIOD

      7 GHB CELLS



 CLASSIFICATION & COUNT OF STREAM SEGMENTS BASED ON SOURCE OF INFLOW:

                HEADWATER     DIVERSION     RECEIVES TRIBUTARY FLOW
                ---------     ---------     -----------------------
                     1              0               0



                    INPUT DATA FOR EACH STREAM SEGMENT
 ---------------------------------------------------------------------------------------------

 SEGMENT    SEG.     INFLOW   OVERLAND   STREAM    STREAM   ICALC  OUTFLOW  DIVERSION PRIORITY
    NO.    LENGTH     RATE     RUNOFF      ET       PPT.    METH.  TO SEG.  FROM SEG.    NO.

      1  2.000E+04 2.533E+00 0.000E+00 0.000E+00 0.000E+00    2        0        0        0


         STREAMBED PROPERTIES AND STREAM DIMENSIONS

 SEGMENT     BED HYD. COND.      BED THICKNESS     ELEV.-TOP OF BED     WIDTH OF STREAM     DEPTH OF STREAM    STREAM ROUGHNESS
    No.     UPPER     LOWER     UPPER     LOWER     UPPER     LOWER     UPPER     LOWER     UPPER     LOWER   CHANNEL      BANK

     1  3.500E-07 3.500E-07                                                                                 3.000E-02 4.000E-02

  EIGHT POINT CROSS-SECTION DATA FOR SEGMENTS WITH ICALC = 2
    X VALUES X VALUES START FROM LEFT SIDE LOOKING DOWNSTREAM

     SEGMENT NO.        X1        X2        X3        X4        X5        X6        X7        X8
            1      0.000E+00 2.000E+00 4.000E+00 6.000E+00 8.000E+00 1.000E+01 1.200E+01 1.400E+01

    Z VALUES ARE RELATIVE TO STREAMBED ELEVATION

     SEGMENT NO.          Z1        Z2        Z3        Z4        Z5        Z6        Z7        Z8
            1      6.000E+00 4.500E+00 3.500E+00 0.000E+00 3.000E-01 3.500E+00 4.500E+00 6.000E+00




 SOLVING FOR HEAD 

 NO OUTPUT CONTROL FOR STRESS PERIOD    2   TIME STEP    1

 SOLVING FOR HEAD 

 NO OUTPUT CONTROL FOR STRESS PERIOD    2   TIME STEP    2

 SOLVING FOR HEAD 

 NO OUTPUT CONTROL FOR STRESS PERIOD    2   TIME STEP    3

 SOLVING FOR HEAD 

 NO OUTPUT CONTROL FOR STRESS PERIOD    2   TIME STEP    4

 SOLVING FOR HEAD 

 NO OUTPUT CONTROL FOR STRESS PERIOD    2   TIME STEP    5

 SOLVING FOR HEAD 

 NO OUTPUT CONTROL FOR STRESS PERIOD    2   TIME STEP    6

 SOLVING FOR HEAD 

 NO OUTPUT CONTROL FOR STRESS PERIOD    2   TIME STEP    7

 SOLVING FOR HEAD 

 NO OUTPUT CONTROL FOR STRESS PERIOD    2   TIME STEP    8

 SOLVING FOR HEAD 

 NO OUTPUT CONTROL FOR STRESS PERIOD    2   TIME STEP    9

 SOLVING FOR HEAD 

 NO OUTPUT CONTROL FOR STRESS PERIOD    2   TIME STEP   10

 SOLVING FOR HEAD 

 NO OUTPUT CONTROL FOR STRESS PERIOD    2   TIME STEP   11

 SOLVING FOR HEAD 

 NO OUTPUT CONTROL FOR STRESS PERIOD    2   TIME STEP   12

 SOLVING FOR HEAD 

 NO OUTPUT CONTROL FOR STRESS PERIOD    2   TIME STEP   13

 SOLVING FOR HEAD 

 NO OUTPUT CONTROL FOR STRESS PERIOD    2   TIME STEP   14

 SOLVING FOR HEAD 

 NO OUTPUT CONTROL FOR STRESS PERIOD    2   TIME STEP   15

 SOLVING FOR HEAD 

 NO OUTPUT CONTROL FOR STRESS PERIOD    2   TIME STEP   16

 SOLVING FOR HEAD 

 NO OUTPUT CONTROL FOR STRESS PERIOD    2   TIME STEP   17

 SOLVING FOR HEAD 

 NO OUTPUT CONTROL FOR STRESS PERIOD    2   TIME STEP   18

 SOLVING FOR HEAD 

 NO OUTPUT CONTROL FOR STRESS PERIOD    2   TIME STEP   19

 SOLVING FOR HEAD 

 NO OUTPUT CONTROL FOR STRESS PERIOD    2   TIME STEP   20

 SOLVING FOR HEAD 

 NO OUTPUT CONTROL FOR STRESS PERIOD    2   TIME STEP   21

 SOLVING FOR HEAD 

 NO OUTPUT CONTROL FOR STRESS PERIOD    2   TIME STEP   22

 SOLVING FOR HEAD 

 NO OUTPUT CONTROL FOR STRESS PERIOD    2   TIME STEP   23

 SOLVING FOR HEAD 

 NO OUTPUT CONTROL FOR STRESS PERIOD    2   TIME STEP   24

 SOLVING FOR HEAD 

 NO OUTPUT CONTROL FOR STRESS PERIOD    2   TIME STEP   25

 SOLVING FOR HEAD 

 NO OUTPUT CONTROL FOR STRESS PERIOD    2   TIME STEP   26

 SOLVING FOR HEAD 

 NO OUTPUT CONTROL FOR STRESS PERIOD    2   TIME STEP   27

 SOLVING FOR HEAD 

 NO OUTPUT CONTROL FOR STRESS PERIOD    2   TIME STEP   28

 SOLVING FOR HEAD 

 NO OUTPUT CONTROL FOR STRESS PERIOD    2   TIME STEP   29

 SOLVING FOR HEAD 

 NO OUTPUT CONTROL FOR STRESS PERIOD    2   TIME STEP   30



 STREAM LISTING     PERIOD      2   STEP       30

 LAYER ROW COL. STREAM  RCH.   FLOW INTO    STREAM     FLOW OUT OF   OVRLND.    DIRECT     STREAM      STREAM      STREAM     STREAM  STREAMBED   FLOW TO   CHNG. UNSAT. 
                SEG.NO.  NO.   STRM. RCH.    LOSS       STRM. RCH.   RUNOFF     PRECIP       ET         HEAD        DEPTH      WIDTH  CONDCTNC.   WAT. TAB.

   1    4    1     1     1    2.5330E+00  1.0459E-03   2.5320E+00  0.000E+00  0.000E+00  0.000E+00  1.41036E+02  1.186E+00  3.231E+00  6.205E-04  1.046E-03 -1.494E-07
   1    4    2     1     2    2.5320E+00  1.0456E-03   2.5309E+00  0.000E+00  0.000E+00  0.000E+00  1.40735E+02  1.185E+00  3.231E+00  6.204E-04  1.066E-03 -2.017E-05
   1    4    3     1     3    2.5309E+00  1.0453E-03   2.5299E+00  0.000E+00  0.000E+00  0.000E+00  1.40435E+02  1.185E+00  3.230E+00  6.203E-04  1.085E-03 -4.011E-05
   1    4    4     1     4    2.5299E+00  1.0450E-03   2.5288E+00  0.000E+00  0.000E+00  0.000E+00  1.40135E+02  1.185E+00  3.230E+00  6.203E-04  1.105E-03 -5.951E-05
   1    4    5     1     5    2.5288E+00  1.0447E-03   2.5278E+00  0.000E+00  0.000E+00  0.000E+00  1.39835E+02  1.185E+00  3.230E+00  6.202E-04  1.123E-03 -7.786E-05
   1    4    6     1     6    2.5278E+00  1.0444E-03   2.5267E+00  0.000E+00  0.000E+00  0.000E+00  1.39534E+02  1.184E+00  3.229E+00  6.201E-04  1.139E-03 -9.467E-05
   1    4    7     1     7    2.5267E+00  1.0441E-03   2.5257E+00  0.000E+00  0.000E+00  0.000E+00  1.39234E+02  1.184E+00  3.229E+00  6.200E-04  1.154E-03 -1.095E-04
   1    4    8     1     8    2.5257E+00  1.0438E-03   2.5246E+00  0.000E+00  0.000E+00  0.000E+00  1.38934E+02  1.184E+00  3.229E+00  6.199E-04  1.166E-03 -1.220E-04
   1    4    9     1     9    2.5246E+00  1.0435E-03   2.5236E+00  0.000E+00  0.000E+00  0.000E+00  1.38634E+02  1.184E+00  3.229E+00  6.198E-04  1.175E-03 -1.319E-04
   1    4   10     1    10    2.5236E+00  1.0432E-03   2.5226E+00  0.000E+00  0.000E+00  0.000E+00  1.38333E+02  1.183E+00  3.228E+00  6.198E-04  1.183E-03 -1.396E-04
   1    4   11     1    11    2.5226E+00  1.0429E-03   2.5215E+00  0.000E+00  0.000E+00  0.000E+00  1.38033E+02  1.183E+00  3.228E+00  6.197E-04  1.187E-03 -1.442E-04
   1    4   12     1    12    2.5215E+00  1.0426E-03   2.5205E+00  0.000E+00  0.000E+00  0.000E+00  1.37733E+02  1.183E+00  3.228E+00  6.196E-04  1.058E-03 -1.532E-05
   1    4   13     1    13    2.5205E+00  1.0423E-03   2.5194E+00  0.000E+00  0.000E+00  0.000E+00  1.37433E+02  1.183E+00  3.227E+00  6.195E-04  7.276E-04  3.147E-04
   1    4   14     1    14    2.5194E+00  1.0421E-03   2.5184E+00  0.000E+00  0.000E+00  0.000E+00  1.37132E+02  1.182E+00  3.227E+00  6.194E-04  4.435E-04  5.985E-04
   1    4   15     1    15    2.5184E+00  1.0418E-03   2.5173E+00  0.000E+00  0.000E+00  0.000E+00  1.36832E+02  1.182E+00  3.227E+00  6.193E-04  2.055E-04  8.363E-04
   1    4   16     1    16    2.5173E+00  1.0415E-03   2.5163E+00  0.000E+00  0.000E+00  0.000E+00  1.36532E+02  1.182E+00  3.226E+00  6.193E-04  1.228E-05  1.029E-03
   1    4   17     1    17    2.5163E+00  1.0412E-03   2.5153E+00  0.000E+00  0.000E+00  0.000E+00  1.36232E+02  1.182E+00  3.226E+00  6.192E-04  0.000E+00  1.041E-03
   1    4   18     1    18    2.5153E+00  1.0409E-03   2.5142E+00  0.000E+00  0.000E+00  0.000E+00  1.35931E+02  1.181E+00  3.226E+00  6.191E-04  0.000E+00  1.041E-03
   1    4   19     1    19    2.5142E+00  1.0406E-03   2.5132E+00  0.000E+00  0.000E+00  0.000E+00  1.35631E+02  1.181E+00  3.226E+00  6.190E-04  0.000E+00  1.041E-03
   1    4   20     1    20    2.5132E+00  1.0403E-03   2.5121E+00  0.000E+00  0.000E+00  0.000E+00  1.35331E+02  1.181E+00  3.225E+00  6.189E-04  0.000E+00  1.040E-03
   1    4   21     1    21    2.5121E+00  1.0400E-03   2.5111E+00  0.000E+00  0.000E+00  0.000E+00  1.35031E+02  1.181E+00  3.225E+00  6.189E-04  0.000E+00  1.040E-03
   1    4   22     1    22    2.5111E+00  1.0397E-03   2.5101E+00  0.000E+00  0.000E+00  0.000E+00  1.34730E+02  1.180E+00  3.225E+00  6.188E-04  0.000E+00  1.040E-03
   1    4   23     1    23    2.5101E+00  1.0394E-03   2.5090E+00  0.000E+00  0.000E+00  0.000E+00  1.34430E+02  1.180E+00  3.224E+00  6.187E-04  0.000E+00  1.039E-03
   1    4   24     1    24    2.5090E+00  1.0391E-03   2.5080E+00  0.000E+00  0.000E+00  0.000E+00  1.34130E+02  1.180E+00  3.224E+00  6.186E-04  0.000E+00  1.039E-03
   1    4   25     1    25    2.5080E+00  1.0388E-03   2.5069E+00  0.000E+00  0.000E+00  0.000E+00  1.33829E+02  1.179E+00  3.224E+00  6.185E-04  0.000E+00  1.039E-03
   1    4   26     1    26    2.5069E+00  1.0385E-03   2.5059E+00  0.000E+00  0.000E+00  0.000E+00  1.33529E+02  1.179E+00  3.223E+00  6.184E-04  0.000E+00  1.039E-03
   1    4   27     1    27    2.5059E+00  1.0382E-03   2.5049E+00  0.000E+00  0.000E+00  0.000E+00  1.33229E+02  1.179E+00  3.223E+00  6.184E-04  2.830E-05  1.010E-03
   1    4   28     1    28    2.5049E+00  1.0379E-03   2.5038E+00  0.000E+00  0.000E+00  0.000E+00  1.32929E+02  1.179E+00  3.223E+00  6.183E-04  1.441E-04  8.938E-04
   1    4   29     1    29    2.5038E+00  1.0376E-03   2.5028E+00  0.000E+00  0.000E+00  0.000E+00  1.32628E+02  1.178E+00  3.222E+00  6.182E-04  2.683E-04  7.693E-04
   1    4   30     1    30    2.5028E+00  1.0373E-03   2.5018E+00  0.000E+00  0.000E+00  0.000E+00  1.32328E+02  1.178E+00  3.222E+00  6.181E-04  3.992E-04  6.381E-04
   1    4   31     1    31    2.5018E+00  1.0370E-03   2.5007E+00  0.000E+00  0.000E+00  0.000E+00  1.32028E+02  1.178E+00  3.222E+00  6.180E-04  5.356E-04  5.014E-04
   1    4   32     1    32    2.5007E+00  1.0367E-03   2.4997E+00  0.000E+00  0.000E+00  0.000E+00  1.31728E+02  1.178E+00  3.222E+00  6.179E-04  6.763E-04  3.604E-04
   1    4   33     1    33    2.4997E+00  1.0365E-03   2.4986E+00  0.000E+00  0.000E+00  0.000E+00  1.31427E+02  1.177E+00  3.221E+00  6.179E-04  8.204E-04  2.160E-04
   1    4   34     1    34    2.4986E+00  1.0362E-03   2.4976E+00  0.000E+00  0.000E+00  0.000E+00  1.31127E+02  1.177E+00  3.221E+00  6.178E-04  9.672E-04  6.900E-05
   1    4   35     1    35    2.4976E+00  1.0359E-03   2.4966E+00  0.000E+00  0.000E+00  0.000E+00  1.30827E+02  1.177E+00  3.221E+00  6.177E-04  1.047E-03 -1.119E-05
   1    4   36     1    36    2.4966E+00  1.0356E-03   2.4955E+00  0.000E+00  0.000E+00  0.000E+00  1.30527E+02  1.177E+00  3.220E+00  6.176E-04  1.046E-03 -1.015E-05
   1    4   37     1    37    2.4955E+00  1.0353E-03   2.4945E+00  0.000E+00  0.000E+00  0.000E+00  1.30226E+02  1.176E+00  3.220E+00  6.175E-04  1.044E-03 -9.194E-06
   1    4   38     1    38    2.4945E+00  1.0350E-03   2.4935E+00  0.000E+00  0.000E+00  0.000E+00  1.29926E+02  1.176E+00  3.220E+00  6.175E-04  1.043E-03 -8.349E-06
   1    4   39     1    39    2.4935E+00  1.0347E-03   2.4924E+00  0.000E+00  0.000E+00  0.000E+00  1.29626E+02  1.176E+00  3.219E+00  6.174E-04  1.042E-03 -7.614E-06
   1    4   40     1    40    2.4924E+00  1.0344E-03   2.4914E+00  0.000E+00  0.000E+00  0.000E+00  1.29326E+02  1.176E+00  3.219E+00  6.173E-04  1.041E-03 -6.976E-06
   1    4   41     1    41    2.4914E+00  1.0341E-03   2.4904E+00  0.000E+00  0.000E+00  0.000E+00  1.29025E+02  1.175E+00  3.219E+00  6.172E-04  1.041E-03 -6.508E-06
   1    4   42     1    42    2.4904E+00  1.0338E-03   2.4893E+00  0.000E+00  0.000E+00  0.000E+00  1.28725E+02  1.175E+00  3.219E+00  6.171E-04  1.040E-03 -6.307E-06
   1    4   43     1    43    2.4893E+00  1.0335E-03   2.4883E+00  0.000E+00  0.000E+00  0.000E+00  1.28425E+02  1.175E+00  3.218E+00  6.170E-04  1.040E-03 -6.161E-06
   1    4   44     1    44    2.4883E+00  1.0332E-03   2.4873E+00  0.000E+00  0.000E+00  0.000E+00  1.28125E+02  1.175E+00  3.218E+00  6.170E-04  1.039E-03 -6.035E-06
   1    4   45     1    45    2.4873E+00  1.0329E-03   2.4862E+00  0.000E+00  0.000E+00  0.000E+00  1.27824E+02  1.174E+00  3.218E+00  6.169E-04  1.039E-03 -5.927E-06
   1    4   46     1    46    2.4862E+00  1.0326E-03   2.4852E+00  0.000E+00  0.000E+00  0.000E+00  1.27524E+02  1.174E+00  3.217E+00  6.168E-04  1.038E-03 -5.838E-06
   1    4   47     1    47    2.4852E+00  1.0323E-03   2.4842E+00  0.000E+00  0.000E+00  0.000E+00  1.27224E+02  1.174E+00  3.217E+00  6.167E-04  1.038E-03 -5.785E-06
   1    4   48     1    48    2.4842E+00  1.0320E-03   2.4831E+00  0.000E+00  0.000E+00  0.000E+00  1.26924E+02  1.174E+00  3.217E+00  6.166E-04  1.038E-03 -5.755E-06
   1    4   49     1    49    2.4831E+00  1.0318E-03   2.4821E+00  0.000E+00  0.000E+00  0.000E+00  1.26623E+02  1.173E+00  3.216E+00  6.165E-04  1.037E-03 -5.734E-06
   1    4   50     1    50    2.4821E+00  1.0315E-03   2.4811E+00  0.000E+00  0.000E+00  0.000E+00  1.26323E+02  1.173E+00  3.216E+00  6.165E-04  1.037E-03 -5.715E-06
   1    4   51     1    51    2.4811E+00  1.0312E-03   2.4800E+00  0.000E+00  0.000E+00  0.000E+00  1.26023E+02  1.173E+00  3.216E+00  6.164E-04  1.037E-03 -5.701E-06
   1    4   52     1    52    2.4800E+00  1.0309E-03   2.4790E+00  0.000E+00  0.000E+00  0.000E+00  1.25723E+02  1.173E+00  3.216E+00  6.163E-04  1.037E-03 -5.692E-06
   1    4   53     1    53    2.4790E+00  1.0306E-03   2.4780E+00  0.000E+00  0.000E+00  0.000E+00  1.25422E+02  1.172E+00  3.215E+00  6.162E-04  1.036E-03 -5.691E-06
   1    4   54     1    54    2.4780E+00  1.0303E-03   2.4769E+00  0.000E+00  0.000E+00  0.000E+00  1.25122E+02  1.172E+00  3.215E+00  6.161E-04  1.036E-03 -5.695E-06
   1    4   55     1    55    2.4769E+00  1.0300E-03   2.4759E+00  0.000E+00  0.000E+00  0.000E+00  1.24822E+02  1.172E+00  3.215E+00  6.161E-04  1.036E-03 -5.702E-06
   1    4   56     1    56    2.4759E+00  1.0297E-03   2.4749E+00  0.000E+00  0.000E+00  0.000E+00  1.24522E+02  1.172E+00  3.214E+00  6.160E-04  1.035E-03 -5.713E-06
   1    4   57     1    57    2.4749E+00  1.0294E-03   2.4739E+00  0.000E+00  0.000E+00  0.000E+00  1.24221E+02  1.171E+00  3.214E+00  6.159E-04  1.035E-03 -5.732E-06
   1    4   58     1    58    2.4739E+00  1.0291E-03   2.4728E+00  0.000E+00  0.000E+00  0.000E+00  1.23921E+02  1.171E+00  3.214E+00  6.158E-04  1.035E-03 -5.759E-06
   1    4   59     1    59    2.4728E+00  1.0288E-03   2.4718E+00  0.000E+00  0.000E+00  0.000E+00  1.23621E+02  1.171E+00  3.213E+00  6.157E-04  1.035E-03 -5.797E-06
   1    4   60     1    60    2.4718E+00  1.0285E-03   2.4708E+00  0.000E+00  0.000E+00  0.000E+00  1.23321E+02  1.171E+00  3.213E+00  6.156E-04  1.034E-03 -5.848E-06
   1    4   61     1    61    2.4708E+00  1.0282E-03   2.4697E+00  0.000E+00  0.000E+00  0.000E+00  1.23020E+02  1.170E+00  3.213E+00  6.156E-04  1.034E-03 -5.916E-06
   1    4   62     1    62    2.4697E+00  1.0279E-03   2.4687E+00  0.000E+00  0.000E+00  0.000E+00  1.22720E+02  1.170E+00  3.213E+00  6.155E-04  1.034E-03 -6.003E-06
   1    4   63     1    63    2.4687E+00  1.0277E-03   2.4677E+00  0.000E+00  0.000E+00  0.000E+00  1.22420E+02  1.170E+00  3.212E+00  6.154E-04  1.034E-03 -6.118E-06
   1    4   64     1    64    2.4677E+00  1.0274E-03   2.4667E+00  0.000E+00  0.000E+00  0.000E+00  1.22120E+02  1.170E+00  3.212E+00  6.153E-04  1.034E-03 -6.265E-06
   1    4   65     1    65    2.4667E+00  1.0271E-03   2.4656E+00  0.000E+00  0.000E+00  0.000E+00  1.21819E+02  1.169E+00  3.212E+00  6.152E-04  1.034E-03 -6.450E-06
   1    4   66     1    66    2.4656E+00  1.0268E-03   2.4646E+00  0.000E+00  0.000E+00  0.000E+00  1.21519E+02  1.169E+00  3.211E+00  6.151E-04  1.033E-03 -6.685E-06
   1    4   67     1    67    2.4646E+00  1.0265E-03   2.4636E+00  0.000E+00  0.000E+00  0.000E+00  1.21219E+02  1.169E+00  3.211E+00  6.151E-04  1.033E-03 -6.976E-06
   1    4   68     1    68    2.4636E+00  1.0262E-03   2.4626E+00  0.000E+00  0.000E+00  0.000E+00  1.20919E+02  1.169E+00  3.211E+00  6.150E-04  1.034E-03 -7.337E-06
   1    4   69     1    69    2.4626E+00  1.0259E-03   2.4615E+00  0.000E+00  0.000E+00  0.000E+00  1.20618E+02  1.168E+00  3.210E+00  6.149E-04  1.034E-03 -7.781E-06
   1    4   70     1    70    2.4615E+00  1.0256E-03   2.4605E+00  0.000E+00  0.000E+00  0.000E+00  1.20318E+02  1.168E+00  3.210E+00  6.148E-04  1.034E-03 -8.324E-06
   1    4   71     1    71    2.4605E+00  1.0253E-03   2.4595E+00  0.000E+00  0.000E+00  0.000E+00  1.20018E+02  1.168E+00  3.210E+00  6.147E-04  1.034E-03 -8.981E-06
   1    4   72     1    72    2.4595E+00  1.0250E-03   2.4584E+00  0.000E+00  0.000E+00  0.000E+00  1.19718E+02  1.168E+00  3.210E+00  6.147E-04  1.035E-03 -9.767E-06
   1    4   73     1    73    2.4584E+00  1.0247E-03   2.4574E+00  0.000E+00  0.000E+00  0.000E+00  1.19417E+02  1.167E+00  3.209E+00  6.146E-04  1.035E-03 -1.069E-05
   1    4   74     1    74    2.4574E+00  1.0244E-03   2.4564E+00  0.000E+00  0.000E+00  0.000E+00  1.19117E+02  1.167E+00  3.209E+00  6.145E-04  1.036E-03 -1.175E-05
   1    4   75     1    75    2.4564E+00  1.0242E-03   2.4554E+00  0.000E+00  0.000E+00  0.000E+00  1.18817E+02  1.167E+00  3.209E+00  6.144E-04  1.037E-03 -1.293E-05
   1    4   76     1    76    2.4554E+00  1.0239E-03   2.4544E+00  0.000E+00  0.000E+00  0.000E+00  1.18517E+02  1.167E+00  3.208E+00  6.143E-04  1.038E-03 -1.419E-05
   1    4   77     1    77    2.4544E+00  1.0236E-03   2.4533E+00  0.000E+00  0.000E+00  0.000E+00  1.18216E+02  1.166E+00  3.208E+00  6.142E-04  1.039E-03 -1.547E-05
   1    4   78     1    78    2.4533E+00  1.0233E-03   2.4523E+00  0.000E+00  0.000E+00  0.000E+00  1.17916E+02  1.166E+00  3.208E+00  6.142E-04  1.040E-03 -1.669E-05
   1    4   79     1    79    2.4523E+00  1.0230E-03   2.4513E+00  0.000E+00  0.000E+00  0.000E+00  1.17616E+02  1.166E+00  3.207E+00  6.141E-04  1.041E-03 -1.775E-05
   1    4   80     1    80    2.4513E+00  1.0227E-03   2.4503E+00  0.000E+00  0.000E+00  0.000E+00  1.17316E+02  1.166E+00  3.207E+00  6.140E-04  1.041E-03 -1.860E-05
   1    4   81     1    81    2.4503E+00  1.0224E-03   2.4492E+00  0.000E+00  0.000E+00  0.000E+00  1.17015E+02  1.165E+00  3.207E+00  6.139E-04  1.042E-03 -1.925E-05
   1    4   82     1    82    2.4492E+00  1.0221E-03   2.4482E+00  0.000E+00  0.000E+00  0.000E+00  1.16715E+02  1.165E+00  3.207E+00  6.138E-04  1.042E-03 -1.999E-05
   1    4   83     1    83    2.4482E+00  1.0218E-03   2.4472E+00  0.000E+00  0.000E+00  0.000E+00  1.16415E+02  1.165E+00  3.206E+00  6.138E-04  1.043E-03 -2.073E-05
   1    4   84     1    84    2.4472E+00  1.0215E-03   2.4462E+00  0.000E+00  0.000E+00  0.000E+00  1.16115E+02  1.165E+00  3.206E+00  6.137E-04  1.043E-03 -2.146E-05
   1    4   85     1    85    2.4462E+00  1.0212E-03   2.4451E+00  0.000E+00  0.000E+00  0.000E+00  1.15814E+02  1.164E+00  3.206E+00  6.136E-04  1.043E-03 -2.217E-05
   1    4   86     1    86    2.4451E+00  1.0210E-03   2.4441E+00  0.000E+00  0.000E+00  0.000E+00  1.15514E+02  1.164E+00  3.205E+00  6.135E-04  1.044E-03 -2.287E-05
   1    4   87     1    87    2.4441E+00  1.0207E-03   2.4431E+00  0.000E+00  0.000E+00  0.000E+00  1.15214E+02  1.164E+00  3.205E+00  6.134E-04  1.044E-03 -2.355E-05
   1    4   88     1    88    2.4431E+00  1.0204E-03   2.4421E+00  0.000E+00  0.000E+00  0.000E+00  1.14914E+02  1.164E+00  3.205E+00  6.133E-04  1.045E-03 -2.420E-05
   1    4   89     1    89    2.4421E+00  1.0201E-03   2.4411E+00  0.000E+00  0.000E+00  0.000E+00  1.14613E+02  1.163E+00  3.204E+00  6.133E-04  1.045E-03 -2.482E-05
   1    4   90     1    90    2.4411E+00  1.0198E-03   2.4400E+00  0.000E+00  0.000E+00  0.000E+00  1.14313E+02  1.163E+00  3.204E+00  6.132E-04  1.045E-03 -2.540E-05
   1    4   91     1    91    2.4400E+00  1.0195E-03   2.4390E+00  0.000E+00  0.000E+00  0.000E+00  1.14013E+02  1.163E+00  3.204E+00  6.131E-04  1.045E-03 -2.595E-05
   1    4   92     1    92    2.4390E+00  1.0192E-03   2.4380E+00  0.000E+00  0.000E+00  0.000E+00  1.13713E+02  1.163E+00  3.203E+00  6.130E-04  1.046E-03 -2.645E-05
   1    4   93     1    93    2.4380E+00  1.0189E-03   2.4370E+00  0.000E+00  0.000E+00  0.000E+00  1.13412E+02  1.162E+00  3.203E+00  6.129E-04  1.046E-03 -2.691E-05
   1    4   94     1    94    2.4370E+00  1.0186E-03   2.4360E+00  0.000E+00  0.000E+00  0.000E+00  1.13112E+02  1.162E+00  3.203E+00  6.129E-04  1.046E-03 -2.731E-05
   1    4   95     1    95    2.4360E+00  1.0183E-03   2.4350E+00  0.000E+00  0.000E+00  0.000E+00  1.12812E+02  1.162E+00  3.203E+00  6.128E-04  1.046E-03 -2.767E-05
   1    4   96     1    96    2.4350E+00  1.0181E-03   2.4339E+00  0.000E+00  0.000E+00  0.000E+00  1.12512E+02  1.162E+00  3.202E+00  6.127E-04  1.046E-03 -2.797E-05
   1    4   97     1    97    2.4339E+00  1.0178E-03   2.4329E+00  0.000E+00  0.000E+00  0.000E+00  1.12211E+02  1.161E+00  3.202E+00  6.126E-04  1.046E-03 -2.821E-05
   1    4   98     1    98    2.4329E+00  1.0175E-03   2.4319E+00  0.000E+00  0.000E+00  0.000E+00  1.11911E+02  1.161E+00  3.202E+00  6.125E-04  1.046E-03 -2.839E-05
   1    4   99     1    99    2.4319E+00  1.0172E-03   2.4309E+00  0.000E+00  0.000E+00  0.000E+00  1.11611E+02  1.161E+00  3.201E+00  6.124E-04  1.046E-03 -2.851E-05
   1    4  100     1   100    2.4309E+00  1.0169E-03   2.4299E+00  0.000E+00  0.000E+00  0.000E+00  1.11311E+02  1.161E+00  3.201E+00  6.124E-04  1.045E-03 -2.857E-05



1
  VOLUMETRIC BUDGET FOR UNSATURATED ZONE BENEATH STREAMS AT END OF TIME STEP    30 STRESS PERIOD   2
  ------------------------------------------------------------------------------------------------

    CUMULATIVE VOLUMES             L**3    RATES FOR THIS TIME STEP         L**3/T
    ------------------                     ------------------------


          STREAM LOSS =       355350.2500            STREAM LOSS =            0.1031
    CHANGE IN STORAGE =       239583.4688      CHANGE IN STORAGE =        1.5805E-02
       RECHARGE TO GW =       115766.8125         RECHARGE TO GW =        8.7330E-02

             TOTAL IN =       355350.2500               TOTAL IN =            0.1031

            TOTAL OUT =       355350.2812              TOTAL OUT =            0.1031

             IN - OUT =       -3.1250E-02               IN - OUT =            0.0000

  PERCENT DISCREPANCY =           -0.00      PERCENT DISCREPANCY =             0.00



1
  VOLUMETRIC BUDGET FOR ENTIRE MODEL AT END OF TIME STEP   30, STRESS PERIOD   2
  ------------------------------------------------------------------------------

     CUMULATIVE VOLUMES      L**3       RATES FOR THIS TIME STEP      L**3/T
     ------------------                 ------------------------

           IN:                                      IN:
           ---                                      ---
             STORAGE =        8952.1396               STORAGE =           0.0000
       CONSTANT HEAD =           0.0000         CONSTANT HEAD =           0.0000
     HEAD DEP BOUNDS =     4666874.5000       HEAD DEP BOUNDS =           0.4275
      STREAM LEAKAGE =      115772.4688        STREAM LEAKAGE =       8.7330E-02

            TOTAL IN =     4791599.0000              TOTAL IN =           0.5148

          OUT:                                     OUT:
          ----                                     ----
             STORAGE =     4789688.0000               STORAGE =           0.5147
       CONSTANT HEAD =           0.0000         CONSTANT HEAD =           0.0000
     HEAD DEP BOUNDS =           0.0000       HEAD DEP BOUNDS =           0.0000
      STREAM LEAKAGE =        1873.7872        STREAM LEAKAGE =           0.0000

           TOTAL OUT =     4791562.0000             TOTAL OUT =           0.5147

            IN - OUT =          37.0000              IN - OUT =       1.4555E-04

 PERCENT DISCREPANCY =           0.00     PERCENT DISCREPANCY =           0.03






         TIME SUMMARY AT END OF TIME STEP   30 IN STRESS PERIOD    2
                    SECONDS     MINUTES      HOURS       DAYS        YEARS
                    -----------------------------------------------------------
   TIME STEP LENGTH 2.49961E+05  4166.0      69.434      2.8931     7.92080E-03
 STRESS PERIOD TIME 2.59200E+06  43200.      720.00      30.000     8.21355E-02
         TOTAL TIME 5.18400E+06  86400.      1440.0      60.000     0.16427    
1
1
                            STRESS PERIOD NO.    3, LENGTH =   2592000.    
                            -----------------------------------------------

                              NUMBER OF TIME STEPS =    30

                               MULTIPLIER FOR DELT =     1.100

                            INITIAL TIME STEP SIZE =   15757.40    

 REUSING NON-PARAMETER GHB CELLS FROM LAST STRESS PERIOD

      7 GHB CELLS



 CLASSIFICATION & COUNT OF STREAM SEGMENTS BASED ON SOURCE OF INFLOW:

                HEADWATER     DIVERSION     RECEIVES TRIBUTARY FLOW
                ---------     ---------     -----------------------
                     1              0               0



                    INPUT DATA FOR EACH STREAM SEGMENT
 ---------------------------------------------------------------------------------------------

 SEGMENT    SEG.     INFLOW   OVERLAND   STREAM    STREAM   ICALC  OUTFLOW  DIVERSION PRIORITY
    NO.    LENGTH     RATE     RUNOFF      ET       PPT.    METH.  TO SEG.  FROM SEG.    NO.

      1  2.000E+04 3.840E+00 0.000E+00 0.000E+00 0.000E+00    2        0        0        0


         STREAMBED PROPERTIES AND STREAM DIMENSIONS

 SEGMENT     BED HYD. COND.      BED THICKNESS     ELEV.-TOP OF BED     WIDTH OF STREAM     DEPTH OF STREAM    STREAM ROUGHNESS
    No.     UPPER     LOWER     UPPER     LOWER     UPPER     LOWER     UPPER     LOWER     UPPER     LOWER   CHANNEL      BANK

     1  3.500E-07 3.500E-07                                                                                 3.000E-02 4.000E-02

  EIGHT POINT CROSS-SECTION DATA FOR SEGMENTS WITH ICALC = 2
    X VALUES X VALUES START FROM LEFT SIDE LOOKING DOWNSTREAM

     SEGMENT NO.        X1        X2        X3        X4        X5        X6        X7        X8
            1      0.000E+00 2.000E+00 4.000E+00 6.000E+00 8.000E+00 1.000E+01 1.200E+01 1.400E+01

    Z VALUES ARE RELATIVE TO STREAMBED ELEVATION

     SEGMENT NO.          Z1        Z2        Z3        Z4        Z5        Z6        Z7        Z8
            1      6.000E+00 4.500E+00 3.500E+00 0.000E+00 3.000E-01 3.500E+00 4.500E+00 6.000E+00




 SOLVING FOR HEAD 

 NO OUTPUT CONTROL FOR STRESS PERIOD    3   TIME STEP    1

 SOLVING FOR HEAD 

 NO OUTPUT CONTROL FOR STRESS PERIOD    3   TIME STEP    2

 SOLVING FOR HEAD 

 NO OUTPUT CONTROL FOR STRESS PERIOD    3   TIME STEP    3

 SOLVING FOR HEAD 

 NO OUTPUT CONTROL FOR STRESS PERIOD    3   TIME STEP    4

 SOLVING FOR HEAD 

 NO OUTPUT CONTROL FOR STRESS PERIOD    3   TIME STEP    5

 SOLVING FOR HEAD 

 NO OUTPUT CONTROL FOR STRESS PERIOD    3   TIME STEP    6

 SOLVING FOR HEAD 

 NO OUTPUT CONTROL FOR STRESS PERIOD    3   TIME STEP    7

 SOLVING FOR HEAD 

 NO OUTPUT CONTROL FOR STRESS PERIOD    3   TIME STEP    8

 SOLVING FOR HEAD 

 NO OUTPUT CONTROL FOR STRESS PERIOD    3   TIME STEP    9

 SOLVING FOR HEAD 

 NO OUTPUT CONTROL FOR STRESS PERIOD    3   TIME STEP   10

 SOLVING FOR HEAD 

 NO OUTPUT CONTROL FOR STRESS PERIOD    3   TIME STEP   11

 SOLVING FOR HEAD 

 NO OUTPUT CONTROL FOR STRESS PERIOD    3   TIME STEP   12

 SOLVING FOR HEAD 

 NO OUTPUT CONTROL FOR STRESS PERIOD    3   TIME STEP   13

 SOLVING FOR HEAD 

 NO OUTPUT CONTROL FOR STRESS PERIOD    3   TIME STEP   14

 SOLVING FOR HEAD 

 NO OUTPUT CONTROL FOR STRESS PERIOD    3   TIME STEP   15

 SOLVING FOR HEAD 

 NO OUTPUT CONTROL FOR STRESS PERIOD    3   TIME STEP   16

 SOLVING FOR HEAD 

 NO OUTPUT CONTROL FOR STRESS PERIOD    3   TIME STEP   17

 SOLVING FOR HEAD 

 NO OUTPUT CONTROL FOR STRESS PERIOD    3   TIME STEP   18

 SOLVING FOR HEAD 

 NO OUTPUT CONTROL FOR STRESS PERIOD    3   TIME STEP   19

 SOLVING FOR HEAD 

 NO OUTPUT CONTROL FOR STRESS PERIOD    3   TIME STEP   20

 SOLVING FOR HEAD 

 NO OUTPUT CONTROL FOR STRESS PERIOD    3   TIME STEP   21

 SOLVING FOR HEAD 

 NO OUTPUT CONTROL FOR STRESS PERIOD    3   TIME STEP   22

 SOLVING FOR HEAD 

 NO OUTPUT CONTROL FOR STRESS PERIOD    3   TIME STEP   23

 SOLVING FOR HEAD 

 NO OUTPUT CONTROL FOR STRESS PERIOD    3   TIME STEP   24

 SOLVING FOR HEAD 

 NO OUTPUT CONTROL FOR STRESS PERIOD    3   TIME STEP   25

 SOLVING FOR HEAD 

 NO OUTPUT CONTROL FOR STRESS PERIOD    3   TIME STEP   26

 SOLVING FOR HEAD 

 NO OUTPUT CONTROL FOR STRESS PERIOD    3   TIME STEP   27

 SOLVING FOR HEAD 

 NO OUTPUT CONTROL FOR STRESS PERIOD    3   TIME STEP   28

 SOLVING FOR HEAD 

 NO OUTPUT CONTROL FOR STRESS PERIOD    3   TIME STEP   29

 SOLVING FOR HEAD 

 NO OUTPUT CONTROL FOR STRESS PERIOD    3   TIME STEP   30



 STREAM LISTING     PERIOD      3   STEP       30

 LAYER ROW COL. STREAM  RCH.   FLOW INTO    STREAM     FLOW OUT OF   OVRLND.    DIRECT     STREAM      STREAM      STREAM     STREAM  STREAMBED   FLOW TO   CHNG. UNSAT. 
                SEG.NO.  NO.   STRM. RCH.    LOSS       STRM. RCH.   RUNOFF     PRECIP       ET         HEAD        DEPTH      WIDTH  CONDCTNC.   WAT. TAB.

   1    4    1     1     1    3.8400E+00  1.4068E-03   3.8386E+00  0.000E+00  0.000E+00  0.000E+00  1.41321E+02  1.471E+00  3.573E+00  7.137E-04  0.000E+00  0.000E+00
   1    4    2     1     2    3.8386E+00  1.4065E-03   3.8372E+00  0.000E+00  0.000E+00  0.000E+00  1.41021E+02  1.471E+00  3.572E+00  7.136E-04  1.419E-03 -1.206E-05
   1    4    3     1     3    3.8372E+00  1.4061E-03   3.8358E+00  0.000E+00  0.000E+00  0.000E+00  1.40721E+02  1.471E+00  3.572E+00  7.135E-04  1.430E-03 -2.403E-05
   1    4    4     1     4    3.8358E+00  1.4057E-03   3.8344E+00  0.000E+00  0.000E+00  0.000E+00  1.40420E+02  1.470E+00  3.572E+00  7.134E-04  1.442E-03 -3.584E-05
   1    4    5     1     5    3.8344E+00  1.4053E-03   3.8330E+00  0.000E+00  0.000E+00  0.000E+00  1.40120E+02  1.470E+00  3.571E+00  7.133E-04  1.453E-03 -4.728E-05
   1    4    6     1     6    3.8330E+00  1.4049E-03   3.8316E+00  0.000E+00  0.000E+00  0.000E+00  1.39820E+02  1.470E+00  3.571E+00  7.133E-04  1.463E-03 -5.816E-05
   1    4    7     1     7    3.8316E+00  1.4046E-03   3.8302E+00  0.000E+00  0.000E+00  0.000E+00  1.39520E+02  1.469E+00  3.571E+00  7.132E-04  1.473E-03 -6.830E-05
   1    4    8     1     8    3.8302E+00  1.4042E-03   3.8288E+00  0.000E+00  0.000E+00  0.000E+00  1.39219E+02  1.469E+00  3.570E+00  7.131E-04  1.482E-03 -7.753E-05
   1    4    9     1     9    3.8288E+00  1.4038E-03   3.8274E+00  0.000E+00  0.000E+00  0.000E+00  1.38919E+02  1.469E+00  3.570E+00  7.130E-04  1.489E-03 -8.568E-05
   1    4   10     1    10    3.8274E+00  1.4034E-03   3.8259E+00  0.000E+00  0.000E+00  0.000E+00  1.38619E+02  1.469E+00  3.570E+00  7.129E-04  1.496E-03 -9.264E-05
   1    4   11     1    11    3.8259E+00  1.4030E-03   3.8245E+00  0.000E+00  0.000E+00  0.000E+00  1.38318E+02  1.468E+00  3.569E+00  7.128E-04  1.501E-03 -9.830E-05
   1    4   12     1    12    3.8245E+00  1.4027E-03   3.8231E+00  0.000E+00  0.000E+00  0.000E+00  1.38018E+02  1.468E+00  3.569E+00  7.127E-04  1.505E-03 -1.026E-04
   1    4   13     1    13    3.8231E+00  1.4023E-03   3.8217E+00  0.000E+00  0.000E+00  0.000E+00  1.37718E+02  1.468E+00  3.569E+00  7.126E-04  1.508E-03 -1.055E-04
   1    4   14     1    14    3.8217E+00  1.4019E-03   3.8203E+00  0.000E+00  0.000E+00  0.000E+00  1.37418E+02  1.468E+00  3.568E+00  7.125E-04  1.509E-03 -1.071E-04
   1    4   15     1    15    3.8203E+00  1.4015E-03   3.8189E+00  0.000E+00  0.000E+00  0.000E+00  1.37117E+02  1.467E+00  3.568E+00  7.124E-04  1.509E-03 -1.074E-04
   1    4   16     1    16    3.8189E+00  1.4012E-03   3.8175E+00  0.000E+00  0.000E+00  0.000E+00  1.36817E+02  1.467E+00  3.568E+00  7.123E-04  1.508E-03 -1.064E-04
   1    4   17     1    17    3.8175E+00  1.4008E-03   3.8161E+00  0.000E+00  0.000E+00  0.000E+00  1.36517E+02  1.467E+00  3.567E+00  7.122E-04  1.505E-03 -1.042E-04
   1    4   18     1    18    3.8161E+00  1.4004E-03   3.8147E+00  0.000E+00  0.000E+00  0.000E+00  1.36216E+02  1.466E+00  3.567E+00  7.122E-04  1.502E-03 -1.011E-04
   1    4   19     1    19    3.8147E+00  1.4000E-03   3.8133E+00  0.000E+00  0.000E+00  0.000E+00  1.35916E+02  1.466E+00  3.567E+00  7.121E-04  1.497E-03 -9.716E-05
   1    4   20     1    20    3.8133E+00  1.3996E-03   3.8119E+00  0.000E+00  0.000E+00  0.000E+00  1.35616E+02  1.466E+00  3.566E+00  7.120E-04  1.492E-03 -9.249E-05
   1    4   21     1    21    3.8119E+00  1.3993E-03   3.8105E+00  0.000E+00  0.000E+00  0.000E+00  1.35316E+02  1.466E+00  3.566E+00  7.119E-04  1.487E-03 -8.730E-05
   1    4   22     1    22    3.8105E+00  1.3989E-03   3.8091E+00  0.000E+00  0.000E+00  0.000E+00  1.35015E+02  1.465E+00  3.566E+00  7.118E-04  1.481E-03 -8.173E-05
   1    4   23     1    23    3.8091E+00  1.3985E-03   3.8077E+00  0.000E+00  0.000E+00  0.000E+00  1.34715E+02  1.465E+00  3.565E+00  7.117E-04  1.474E-03 -7.593E-05
   1    4   24     1    24    3.8077E+00  1.3981E-03   3.8063E+00  0.000E+00  0.000E+00  0.000E+00  1.34415E+02  1.465E+00  3.565E+00  7.116E-04  1.468E-03 -7.005E-05
   1    4   25     1    25    3.8063E+00  1.3978E-03   3.8049E+00  0.000E+00  0.000E+00  0.000E+00  1.34114E+02  1.464E+00  3.565E+00  7.115E-04  1.462E-03 -6.420E-05
   1    4   26     1    26    3.8049E+00  1.3974E-03   3.8035E+00  0.000E+00  0.000E+00  0.000E+00  1.33814E+02  1.464E+00  3.564E+00  7.114E-04  1.456E-03 -5.850E-05
   1    4   27     1    27    3.8035E+00  1.3970E-03   3.8021E+00  0.000E+00  0.000E+00  0.000E+00  1.33514E+02  1.464E+00  3.564E+00  7.113E-04  1.450E-03 -5.302E-05
   1    4   28     1    28    3.8021E+00  1.3966E-03   3.8008E+00  0.000E+00  0.000E+00  0.000E+00  1.33214E+02  1.464E+00  3.564E+00  7.112E-04  1.444E-03 -4.783E-05
   1    4   29     1    29    3.8008E+00  1.3962E-03   3.7994E+00  0.000E+00  0.000E+00  0.000E+00  1.32913E+02  1.463E+00  3.563E+00  7.112E-04  1.439E-03 -4.298E-05
   1    4   30     1    30    3.7994E+00  1.3959E-03   3.7980E+00  0.000E+00  0.000E+00  0.000E+00  1.32613E+02  1.463E+00  3.563E+00  7.111E-04  1.434E-03 -3.850E-05
   1    4   31     1    31    3.7980E+00  1.3955E-03   3.7966E+00  0.000E+00  0.000E+00  0.000E+00  1.32313E+02  1.463E+00  3.563E+00  7.110E-04  1.430E-03 -3.442E-05
   1    4   32     1    32    3.7966E+00  1.3951E-03   3.7952E+00  0.000E+00  0.000E+00  0.000E+00  1.32013E+02  1.463E+00  3.562E+00  7.109E-04  1.426E-03 -3.074E-05
   1    4   33     1    33    3.7952E+00  1.3947E-03   3.7938E+00  0.000E+00  0.000E+00  0.000E+00  1.31712E+02  1.462E+00  3.562E+00  7.108E-04  1.422E-03 -2.744E-05
   1    4   34     1    34    3.7938E+00  1.3944E-03   3.7924E+00  0.000E+00  0.000E+00  0.000E+00  1.31412E+02  1.462E+00  3.562E+00  7.107E-04  1.419E-03 -2.453E-05
   1    4   35     1    35    3.7924E+00  1.3940E-03   3.7910E+00  0.000E+00  0.000E+00  0.000E+00  1.31112E+02  1.462E+00  3.561E+00  7.106E-04  1.416E-03 -2.197E-05
   1    4   36     1    36    3.7910E+00  1.3936E-03   3.7896E+00  0.000E+00  0.000E+00  0.000E+00  1.30811E+02  1.461E+00  3.561E+00  7.105E-04  1.413E-03 -1.974E-05
   1    4   37     1    37    3.7896E+00  1.3932E-03   3.7882E+00  0.000E+00  0.000E+00  0.000E+00  1.30511E+02  1.461E+00  3.561E+00  7.104E-04  1.411E-03 -1.782E-05
   1    4   38     1    38    3.7882E+00  1.3928E-03   3.7868E+00  0.000E+00  0.000E+00  0.000E+00  1.30211E+02  1.461E+00  3.560E+00  7.103E-04  1.409E-03 -1.617E-05
   1    4   39     1    39    3.7868E+00  1.3925E-03   3.7854E+00  0.000E+00  0.000E+00  0.000E+00  1.29911E+02  1.461E+00  3.560E+00  7.102E-04  1.407E-03 -1.478E-05
   1    4   40     1    40    3.7854E+00  1.3921E-03   3.7840E+00  0.000E+00  0.000E+00  0.000E+00  1.29610E+02  1.460E+00  3.560E+00  7.102E-04  1.406E-03 -1.360E-05
   1    4   41     1    41    3.7840E+00  1.3917E-03   3.7826E+00  0.000E+00  0.000E+00  0.000E+00  1.29310E+02  1.460E+00  3.559E+00  7.101E-04  1.404E-03 -1.261E-05
   1    4   42     1    42    3.7826E+00  1.3913E-03   3.7812E+00  0.000E+00  0.000E+00  0.000E+00  1.29010E+02  1.460E+00  3.559E+00  7.100E-04  1.403E-03 -1.179E-05
   1    4   43     1    43    3.7812E+00  1.3910E-03   3.7798E+00  0.000E+00  0.000E+00  0.000E+00  1.28709E+02  1.459E+00  3.559E+00  7.099E-04  1.402E-03 -1.111E-05
   1    4   44     1    44    3.7798E+00  1.3906E-03   3.7785E+00  0.000E+00  0.000E+00  0.000E+00  1.28409E+02  1.459E+00  3.558E+00  7.098E-04  1.401E-03 -1.055E-05
   1    4   45     1    45    3.7785E+00  1.3902E-03   3.7771E+00  0.000E+00  0.000E+00  0.000E+00  1.28109E+02  1.459E+00  3.558E+00  7.097E-04  1.400E-03 -1.010E-05
   1    4   46     1    46    3.7771E+00  1.3898E-03   3.7757E+00  0.000E+00  0.000E+00  0.000E+00  1.27809E+02  1.459E+00  3.558E+00  7.096E-04  1.400E-03 -9.742E-06
   1    4   47     1    47    3.7757E+00  1.3895E-03   3.7743E+00  0.000E+00  0.000E+00  0.000E+00  1.27508E+02  1.458E+00  3.557E+00  7.095E-04  1.399E-03 -9.454E-06
   1    4   48     1    48    3.7743E+00  1.3891E-03   3.7729E+00  0.000E+00  0.000E+00  0.000E+00  1.27208E+02  1.458E+00  3.557E+00  7.094E-04  1.398E-03 -9.227E-06
   1    4   49     1    49    3.7729E+00  1.3887E-03   3.7715E+00  0.000E+00  0.000E+00  0.000E+00  1.26908E+02  1.458E+00  3.557E+00  7.093E-04  1.398E-03 -9.052E-06
   1    4   50     1    50    3.7715E+00  1.3883E-03   3.7701E+00  0.000E+00  0.000E+00  0.000E+00  1.26607E+02  1.457E+00  3.556E+00  7.092E-04  1.397E-03 -8.923E-06
   1    4   51     1    51    3.7701E+00  1.3880E-03   3.7687E+00  0.000E+00  0.000E+00  0.000E+00  1.26307E+02  1.457E+00  3.556E+00  7.092E-04  1.397E-03 -8.831E-06
   1    4   52     1    52    3.7687E+00  1.3876E-03   3.7673E+00  0.000E+00  0.000E+00  0.000E+00  1.26007E+02  1.457E+00  3.556E+00  7.091E-04  1.396E-03 -8.773E-06
   1    4   53     1    53    3.7673E+00  1.3872E-03   3.7660E+00  0.000E+00  0.000E+00  0.000E+00  1.25707E+02  1.457E+00  3.555E+00  7.090E-04  1.396E-03 -8.745E-06
   1    4   54     1    54    3.7660E+00  1.3868E-03   3.7646E+00  0.000E+00  0.000E+00  0.000E+00  1.25406E+02  1.456E+00  3.555E+00  7.089E-04  1.396E-03 -8.746E-06
   1    4   55     1    55    3.7646E+00  1.3865E-03   3.7632E+00  0.000E+00  0.000E+00  0.000E+00  1.25106E+02  1.456E+00  3.555E+00  7.088E-04  1.395E-03 -8.773E-06
   1    4   56     1    56    3.7632E+00  1.3861E-03   3.7618E+00  0.000E+00  0.000E+00  0.000E+00  1.24806E+02  1.456E+00  3.554E+00  7.087E-04  1.395E-03 -8.827E-06
   1    4   57     1    57    3.7618E+00  1.3857E-03   3.7604E+00  0.000E+00  0.000E+00  0.000E+00  1.24506E+02  1.456E+00  3.554E+00  7.086E-04  1.395E-03 -8.909E-06
   1    4   58     1    58    3.7604E+00  1.3853E-03   3.7590E+00  0.000E+00  0.000E+00  0.000E+00  1.24205E+02  1.455E+00  3.554E+00  7.085E-04  1.394E-03 -9.019E-06
   1    4   59     1    59    3.7590E+00  1.3850E-03   3.7576E+00  0.000E+00  0.000E+00  0.000E+00  1.23905E+02  1.455E+00  3.553E+00  7.084E-04  1.394E-03 -9.161E-06
   1    4   60     1    60    3.7576E+00  1.3846E-03   3.7563E+00  0.000E+00  0.000E+00  0.000E+00  1.23605E+02  1.455E+00  3.553E+00  7.083E-04  1.394E-03 -9.339E-06
   1    4   61     1    61    3.7563E+00  1.3842E-03   3.7549E+00  0.000E+00  0.000E+00  0.000E+00  1.23304E+02  1.454E+00  3.553E+00  7.082E-04  1.394E-03 -9.553E-06
   1    4   62     1    62    3.7549E+00  1.3838E-03   3.7535E+00  0.000E+00  0.000E+00  0.000E+00  1.23004E+02  1.454E+00  3.552E+00  7.082E-04  1.394E-03 -9.807E-06
   1    4   63     1    63    3.7535E+00  1.3835E-03   3.7521E+00  0.000E+00  0.000E+00  0.000E+00  1.22704E+02  1.454E+00  3.552E+00  7.081E-04  1.394E-03 -1.011E-05
   1    4   64     1    64    3.7521E+00  1.3831E-03   3.7507E+00  0.000E+00  0.000E+00  0.000E+00  1.22404E+02  1.454E+00  3.552E+00  7.080E-04  1.394E-03 -1.045E-05
   1    4   65     1    65    3.7507E+00  1.3827E-03   3.7493E+00  0.000E+00  0.000E+00  0.000E+00  1.22103E+02  1.453E+00  3.551E+00  7.079E-04  1.394E-03 -1.085E-05
   1    4   66     1    66    3.7493E+00  1.3823E-03   3.7480E+00  0.000E+00  0.000E+00  0.000E+00  1.21803E+02  1.453E+00  3.551E+00  7.078E-04  1.394E-03 -1.129E-05
   1    4   67     1    67    3.7480E+00  1.3820E-03   3.7466E+00  0.000E+00  0.000E+00  0.000E+00  1.21503E+02  1.453E+00  3.551E+00  7.077E-04  1.394E-03 -1.179E-05
   1    4   68     1    68    3.7466E+00  1.3816E-03   3.7452E+00  0.000E+00  0.000E+00  0.000E+00  1.21202E+02  1.452E+00  3.550E+00  7.076E-04  1.394E-03 -1.235E-05
   1    4   69     1    69    3.7452E+00  1.3812E-03   3.7438E+00  0.000E+00  0.000E+00  0.000E+00  1.20902E+02  1.452E+00  3.550E+00  7.075E-04  1.394E-03 -1.296E-05
   1    4   70     1    70    3.7438E+00  1.3808E-03   3.7424E+00  0.000E+00  0.000E+00  0.000E+00  1.20602E+02  1.452E+00  3.550E+00  7.074E-04  1.394E-03 -1.364E-05
   1    4   71     1    71    3.7424E+00  1.3805E-03   3.7411E+00  0.000E+00  0.000E+00  0.000E+00  1.20302E+02  1.452E+00  3.549E+00  7.073E-04  1.395E-03 -1.439E-05
   1    4   72     1    72    3.7411E+00  1.3801E-03   3.7397E+00  0.000E+00  0.000E+00  0.000E+00  1.20001E+02  1.451E+00  3.549E+00  7.072E-04  1.395E-03 -1.522E-05
   1    4   73     1    73    3.7397E+00  1.3797E-03   3.7383E+00  0.000E+00  0.000E+00  0.000E+00  1.19701E+02  1.451E+00  3.549E+00  7.072E-04  1.396E-03 -1.613E-05
   1    4   74     1    74    3.7383E+00  1.3793E-03   3.7369E+00  0.000E+00  0.000E+00  0.000E+00  1.19401E+02  1.451E+00  3.548E+00  7.071E-04  1.396E-03 -1.713E-05
   1    4   75     1    75    3.7369E+00  1.3790E-03   3.7355E+00  0.000E+00  0.000E+00  0.000E+00  1.19101E+02  1.451E+00  3.548E+00  7.070E-04  1.397E-03 -1.823E-05
   1    4   76     1    76    3.7355E+00  1.3786E-03   3.7342E+00  0.000E+00  0.000E+00  0.000E+00  1.18800E+02  1.450E+00  3.548E+00  7.069E-04  1.398E-03 -1.944E-05
   1    4   77     1    77    3.7342E+00  1.3782E-03   3.7328E+00  0.000E+00  0.000E+00  0.000E+00  1.18500E+02  1.450E+00  3.547E+00  7.068E-04  1.399E-03 -2.081E-05
   1    4   78     1    78    3.7328E+00  1.3778E-03   3.7314E+00  0.000E+00  0.000E+00  0.000E+00  1.18200E+02  1.450E+00  3.547E+00  7.067E-04  1.400E-03 -2.254E-05
   1    4   79     1    79    3.7314E+00  1.3775E-03   3.7300E+00  0.000E+00  0.000E+00  0.000E+00  1.17899E+02  1.449E+00  3.547E+00  7.066E-04  1.403E-03 -2.520E-05
   1    4   80     1    80    3.7300E+00  1.3771E-03   3.7286E+00  0.000E+00  0.000E+00  0.000E+00  1.17599E+02  1.449E+00  3.546E+00  7.065E-04  1.408E-03 -3.041E-05
   1    4   81     1    81    3.7286E+00  1.3767E-03   3.7273E+00  0.000E+00  0.000E+00  0.000E+00  1.17299E+02  1.449E+00  3.546E+00  7.064E-04  1.419E-03 -4.260E-05
   1    4   82     1    82    3.7273E+00  1.3764E-03   3.7259E+00  0.000E+00  0.000E+00  0.000E+00  1.16999E+02  1.449E+00  3.546E+00  7.063E-04  1.450E-03 -7.374E-05
   1    4   83     1    83    3.7259E+00  1.3760E-03   3.7245E+00  0.000E+00  0.000E+00  0.000E+00  1.16698E+02  1.448E+00  3.545E+00  7.062E-04  1.481E-03 -1.047E-04
   1    4   84     1    84    3.7245E+00  1.3756E-03   3.7231E+00  0.000E+00  0.000E+00  0.000E+00  1.16398E+02  1.448E+00  3.545E+00  7.062E-04  1.511E-03 -1.352E-04
   1    4   85     1    85    3.7231E+00  1.3752E-03   3.7218E+00  0.000E+00  0.000E+00  0.000E+00  1.16098E+02  1.448E+00  3.545E+00  7.061E-04  1.540E-03 -1.650E-04
   1    4   86     1    86    3.7218E+00  1.3749E-03   3.7204E+00  0.000E+00  0.000E+00  0.000E+00  1.15797E+02  1.447E+00  3.544E+00  7.060E-04  1.569E-03 -1.941E-04
   1    4   87     1    87    3.7204E+00  1.3745E-03   3.7190E+00  0.000E+00  0.000E+00  0.000E+00  1.15497E+02  1.447E+00  3.544E+00  7.059E-04  1.597E-03 -2.223E-04
   1    4   88     1    88    3.7190E+00  1.3741E-03   3.7176E+00  0.000E+00  0.000E+00  0.000E+00  1.15197E+02  1.447E+00  3.544E+00  7.058E-04  1.623E-03 -2.492E-04
   1    4   89     1    89    3.7176E+00  1.3737E-03   3.7163E+00  0.000E+00  0.000E+00  0.000E+00  1.14897E+02  1.447E+00  3.543E+00  7.057E-04  1.649E-03 -2.748E-04
   1    4   90     1    90    3.7163E+00  1.3734E-03   3.7149E+00  0.000E+00  0.000E+00  0.000E+00  1.14596E+02  1.446E+00  3.543E+00  7.056E-04  1.672E-03 -2.990E-04
   1    4   91     1    91    3.7149E+00  1.3730E-03   3.7135E+00  0.000E+00  0.000E+00  0.000E+00  1.14296E+02  1.446E+00  3.543E+00  7.055E-04  1.695E-03 -3.215E-04
   1    4   92     1    92    3.7135E+00  1.3726E-03   3.7121E+00  0.000E+00  0.000E+00  0.000E+00  1.13996E+02  1.446E+00  3.542E+00  7.054E-04  1.715E-03 -3.423E-04
   1    4   93     1    93    3.7121E+00  1.3723E-03   3.7108E+00  0.000E+00  0.000E+00  0.000E+00  1.13696E+02  1.446E+00  3.542E+00  7.053E-04  1.733E-03 -3.610E-04
   1    4   94     1    94    3.7108E+00  1.3719E-03   3.7094E+00  0.000E+00  0.000E+00  0.000E+00  1.13395E+02  1.445E+00  3.542E+00  7.052E-04  1.750E-03 -3.778E-04
   1    4   95     1    95    3.7094E+00  1.3715E-03   3.7080E+00  0.000E+00  0.000E+00  0.000E+00  1.13095E+02  1.445E+00  3.541E+00  7.052E-04  1.764E-03 -3.924E-04
   1    4   96     1    96    3.7080E+00  1.3711E-03   3.7067E+00  0.000E+00  0.000E+00  0.000E+00  1.12795E+02  1.445E+00  3.541E+00  7.051E-04  1.776E-03 -4.047E-04
   1    4   97     1    97    3.7067E+00  1.3708E-03   3.7053E+00  0.000E+00  0.000E+00  0.000E+00  1.12494E+02  1.444E+00  3.541E+00  7.050E-04  1.785E-03 -4.147E-04
   1    4   98     1    98    3.7053E+00  1.3704E-03   3.7039E+00  0.000E+00  0.000E+00  0.000E+00  1.12194E+02  1.444E+00  3.540E+00  7.049E-04  1.793E-03 -4.222E-04
   1    4   99     1    99    3.7039E+00  1.3700E-03   3.7026E+00  0.000E+00  0.000E+00  0.000E+00  1.11894E+02  1.444E+00  3.540E+00  7.048E-04  1.797E-03 -4.273E-04
   1    4  100     1   100    3.7026E+00  1.3697E-03   3.7012E+00  0.000E+00  0.000E+00  0.000E+00  1.11594E+02  1.444E+00  3.540E+00  7.047E-04  1.799E-03 -4.298E-04



1
  VOLUMETRIC BUDGET FOR UNSATURATED ZONE BENEATH STREAMS AT END OF TIME STEP    30 STRESS PERIOD   3
  ------------------------------------------------------------------------------------------------

    CUMULATIVE VOLUMES             L**3    RATES FOR THIS TIME STEP         L**3/T
    ------------------                     ------------------------


          STREAM LOSS =       714706.2500            STREAM LOSS =            0.1388
    CHANGE IN STORAGE =       251360.9844      CHANGE IN STORAGE =       -8.5234E-03
       RECHARGE TO GW =       463346.0000         RECHARGE TO GW =            0.1473

             TOTAL IN =       714706.2500               TOTAL IN =            0.1473

            TOTAL OUT =       714707.0000              TOTAL OUT =            0.1473

             IN - OUT =           -0.7500               IN - OUT =        1.4901E-08

  PERCENT DISCREPANCY =           -0.00      PERCENT DISCREPANCY =             0.00



1
  VOLUMETRIC BUDGET FOR ENTIRE MODEL AT END OF TIME STEP   30, STRESS PERIOD   3
  ------------------------------------------------------------------------------

     CUMULATIVE VOLUMES      L**3       RATES FOR THIS TIME STEP      L**3/T
     ------------------                 ------------------------

           IN:                                      IN:
           ---                                      ---
             STORAGE =       26919.2266               STORAGE =           0.0000
       CONSTANT HEAD =           0.0000         CONSTANT HEAD =           0.0000
     HEAD DEP BOUNDS =     5646133.0000       HEAD DEP BOUNDS =           0.3416
      STREAM LEAKAGE =      463354.7500        STREAM LEAKAGE =           0.1473

            TOTAL IN =     6136407.0000              TOTAL IN =           0.4889

          OUT:                                     OUT:
          ----                                     ----
             STORAGE =     6131737.5000               STORAGE =           0.4888
       CONSTANT HEAD =           0.0000         CONSTANT HEAD =           0.0000
     HEAD DEP BOUNDS =           0.0000       HEAD DEP BOUNDS =           0.0000
      STREAM LEAKAGE =        4651.9043        STREAM LEAKAGE =           0.0000

           TOTAL OUT =     6136389.5000             TOTAL OUT =           0.4888

            IN - OUT =          17.5000              IN - OUT =       8.3476E-05

 PERCENT DISCREPANCY =           0.00     PERCENT DISCREPANCY =           0.02






         TIME SUMMARY AT END OF TIME STEP   30 IN STRESS PERIOD    3
                    SECONDS     MINUTES      HOURS       DAYS        YEARS
                    -----------------------------------------------------------
   TIME STEP LENGTH 2.49961E+05  4166.0      69.434      2.8931     7.92080E-03
 STRESS PERIOD TIME 2.59200E+06  43200.      720.00      30.000     8.21355E-02
         TOTAL TIME 7.77600E+06 1.29600E+05  2160.0      90.000     0.24641    
1
1
                            STRESS PERIOD NO.    4, LENGTH =   2592000.    
                            -----------------------------------------------

                              NUMBER OF TIME STEPS =    30

                               MULTIPLIER FOR DELT =     1.100

                            INITIAL TIME STEP SIZE =   15757.40    

 REUSING NON-PARAMETER GHB CELLS FROM LAST STRESS PERIOD

      7 GHB CELLS



 CLASSIFICATION & COUNT OF STREAM SEGMENTS BASED ON SOURCE OF INFLOW:

                HEADWATER     DIVERSION     RECEIVES TRIBUTARY FLOW
                ---------     ---------     -----------------------
                     1              0               0



                    INPUT DATA FOR EACH STREAM SEGMENT
 ---------------------------------------------------------------------------------------------

 SEGMENT    SEG.     INFLOW   OVERLAND   STREAM    STREAM   ICALC  OUTFLOW  DIVERSION PRIORITY
    NO.    LENGTH     RATE     RUNOFF      ET       PPT.    METH.  TO SEG.  FROM SEG.    NO.

      1  2.000E+04 1.785E+01 0.000E+00 0.000E+00 0.000E+00    2        0        0        0


         STREAMBED PROPERTIES AND STREAM DIMENSIONS

 SEGMENT     BED HYD. COND.      BED THICKNESS     ELEV.-TOP OF BED     WIDTH OF STREAM     DEPTH OF STREAM    STREAM ROUGHNESS
    No.     UPPER     LOWER     UPPER     LOWER     UPPER     LOWER     UPPER     LOWER     UPPER     LOWER   CHANNEL      BANK

     1  3.500E-07 3.500E-07                                                                                 3.000E-02 4.000E-02

  EIGHT POINT CROSS-SECTION DATA FOR SEGMENTS WITH ICALC = 2
    X VALUES X VALUES START FROM LEFT SIDE LOOKING DOWNSTREAM

     SEGMENT NO.        X1        X2        X3        X4        X5        X6        X7        X8
            1      0.000E+00 2.000E+00 4.000E+00 6.000E+00 8.000E+00 1.000E+01 1.200E+01 1.400E+01

    Z VALUES ARE RELATIVE TO STREAMBED ELEVATION

     SEGMENT NO.          Z1        Z2        Z3        Z4        Z5        Z6        Z7        Z8
            1      6.000E+00 4.500E+00 3.500E+00 0.000E+00 3.000E-01 3.500E+00 4.500E+00 6.000E+00




 SOLVING FOR HEAD 

 NO OUTPUT CONTROL FOR STRESS PERIOD    4   TIME STEP    1

 SOLVING FOR HEAD 

 NO OUTPUT CONTROL FOR STRESS PERIOD    4   TIME STEP    2

 SOLVING FOR HEAD 

 NO OUTPUT CONTROL FOR STRESS PERIOD    4   TIME STEP    3

 SOLVING FOR HEAD 

 NO OUTPUT CONTROL FOR STRESS PERIOD    4   TIME STEP    4

 SOLVING FOR HEAD 

 NO OUTPUT CONTROL FOR STRESS PERIOD    4   TIME STEP    5

 SOLVING FOR HEAD 

 NO OUTPUT CONTROL FOR STRESS PERIOD    4   TIME STEP    6

 SOLVING FOR HEAD 

 NO OUTPUT CONTROL FOR STRESS PERIOD    4   TIME STEP    7

 SOLVING FOR HEAD 

 NO OUTPUT CONTROL FOR STRESS PERIOD    4   TIME STEP    8

 SOLVING FOR HEAD 

 NO OUTPUT CONTROL FOR STRESS PERIOD    4   TIME STEP    9

 SOLVING FOR HEAD 

 NO OUTPUT CONTROL FOR STRESS PERIOD    4   TIME STEP   10

 SOLVING FOR HEAD 

 NO OUTPUT CONTROL FOR STRESS PERIOD    4   TIME STEP   11

 SOLVING FOR HEAD 

 NO OUTPUT CONTROL FOR STRESS PERIOD    4   TIME STEP   12

 SOLVING FOR HEAD 

 NO OUTPUT CONTROL FOR STRESS PERIOD    4   TIME STEP   13

 SOLVING FOR HEAD 

 NO OUTPUT CONTROL FOR STRESS PERIOD    4   TIME STEP   14

 SOLVING FOR HEAD 

 NO OUTPUT CONTROL FOR STRESS PERIOD    4   TIME STEP   15

 SOLVING FOR HEAD 

 NO OUTPUT CONTROL FOR STRESS PERIOD    4   TIME STEP   16

 SOLVING FOR HEAD 

 NO OUTPUT CONTROL FOR STRESS PERIOD    4   TIME STEP   17

 SOLVING FOR HEAD 

 NO OUTPUT CONTROL FOR STRESS PERIOD    4   TIME STEP   18

 SOLVING FOR HEAD 

 NO OUTPUT CONTROL FOR STRESS PERIOD    4   TIME STEP   19

 SOLVING FOR HEAD 

 NO OUTPUT CONTROL FOR STRESS PERIOD    4   TIME STEP   20

 SOLVING FOR HEAD 

 NO OUTPUT CONTROL FOR STRESS PERIOD    4   TIME STEP   21

 SOLVING FOR HEAD 

 NO OUTPUT CONTROL FOR STRESS PERIOD    4   TIME STEP   22

 SOLVING FOR HEAD 

 NO OUTPUT CONTROL FOR STRESS PERIOD    4   TIME STEP   23

 SOLVING FOR HEAD 

 NO OUTPUT CONTROL FOR STRESS PERIOD    4   TIME STEP   24

 SOLVING FOR HEAD 

 NO OUTPUT CONTROL FOR STRESS PERIOD    4   TIME STEP   25

 SOLVING FOR HEAD 

 NO OUTPUT CONTROL FOR STRESS PERIOD    4   TIME STEP   26

 SOLVING FOR HEAD 

 NO OUTPUT CONTROL FOR STRESS PERIOD    4   TIME STEP   27

 SOLVING FOR HEAD 

 NO OUTPUT CONTROL FOR STRESS PERIOD    4   TIME STEP   28

 SOLVING FOR HEAD 

 NO OUTPUT CONTROL FOR STRESS PERIOD    4   TIME STEP   29

 SOLVING FOR HEAD 

 NO OUTPUT CONTROL FOR STRESS PERIOD    4   TIME STEP   30



 STREAM LISTING     PERIOD      4   STEP       30

 LAYER ROW COL. STREAM  RCH.   FLOW INTO    STREAM     FLOW OUT OF   OVRLND.    DIRECT     STREAM      STREAM      STREAM     STREAM  STREAMBED   FLOW TO   CHNG. UNSAT. 
                SEG.NO.  NO.   STRM. RCH.    LOSS       STRM. RCH.   RUNOFF     PRECIP       ET         HEAD        DEPTH      WIDTH  CONDCTNC.   WAT. TAB.

   1    4    1     1     1    1.7850E+01  4.7593E-03   1.7845E+01  0.000E+00  0.000E+00  0.000E+00  1.43063E+02  3.213E+00  5.656E+00  1.282E-03  4.771E-03 -3.188E-07
   1    4    2     1     2    1.7845E+01  4.7583E-03   1.7840E+01  0.000E+00  0.000E+00  0.000E+00  1.42762E+02  3.212E+00  5.656E+00  1.282E-03  4.711E-03  5.849E-05
   1    4    3     1     3    1.7840E+01  4.7572E-03   1.7836E+01  0.000E+00  0.000E+00  0.000E+00  1.42462E+02  3.212E+00  5.655E+00  1.282E-03  4.471E-03  2.972E-04
   1    4    4     1     4    1.7836E+01  4.7562E-03   1.7831E+01  0.000E+00  0.000E+00  0.000E+00  1.42161E+02  3.211E+00  5.655E+00  1.282E-03  4.228E-03  5.407E-04
   1    4    5     1     5    1.7831E+01  4.7551E-03   1.7826E+01  0.000E+00  0.000E+00  0.000E+00  1.41861E+02  3.211E+00  5.654E+00  1.281E-03  4.243E-03  5.234E-04
   1    4    6     1     6    1.7826E+01  4.7541E-03   1.7821E+01  0.000E+00  0.000E+00  0.000E+00  1.41560E+02  3.210E+00  5.654E+00  1.281E-03  4.258E-03  5.077E-04
   1    4    7     1     7    1.7821E+01  4.7530E-03   1.7817E+01  0.000E+00  0.000E+00  0.000E+00  1.41260E+02  3.210E+00  5.653E+00  1.281E-03  4.271E-03  4.929E-04
   1    4    8     1     8    1.7817E+01  4.7520E-03   1.7812E+01  0.000E+00  0.000E+00  0.000E+00  1.40960E+02  3.210E+00  5.653E+00  1.281E-03  4.284E-03  4.789E-04
   1    4    9     1     9    1.7812E+01  4.7510E-03   1.7807E+01  0.000E+00  0.000E+00  0.000E+00  1.40659E+02  3.209E+00  5.652E+00  1.281E-03  4.296E-03  4.661E-04
   1    4   10     1    10    1.7807E+01  4.7499E-03   1.7802E+01  0.000E+00  0.000E+00  0.000E+00  1.40359E+02  3.209E+00  5.652E+00  1.281E-03  4.307E-03  4.546E-04
   1    4   11     1    11    1.7802E+01  4.7489E-03   1.7798E+01  0.000E+00  0.000E+00  0.000E+00  1.40058E+02  3.208E+00  5.651E+00  1.281E-03  4.316E-03  4.444E-04
   1    4   12     1    12    1.7798E+01  4.7478E-03   1.7793E+01  0.000E+00  0.000E+00  0.000E+00  1.39758E+02  3.208E+00  5.651E+00  1.280E-03  4.323E-03  4.356E-04
   1    4   13     1    13    1.7793E+01  4.7468E-03   1.7788E+01  0.000E+00  0.000E+00  0.000E+00  1.39457E+02  3.207E+00  5.650E+00  1.280E-03  4.330E-03  4.283E-04
   1    4   14     1    14    1.7788E+01  4.7457E-03   1.7783E+01  0.000E+00  0.000E+00  0.000E+00  1.39157E+02  3.207E+00  5.649E+00  1.280E-03  4.334E-03  4.225E-04
   1    4   15     1    15    1.7783E+01  4.7447E-03   1.7779E+01  0.000E+00  0.000E+00  0.000E+00  1.38857E+02  3.207E+00  5.649E+00  1.280E-03  4.338E-03  4.181E-04
   1    4   16     1    16    1.7779E+01  4.7436E-03   1.7774E+01  0.000E+00  0.000E+00  0.000E+00  1.38556E+02  3.206E+00  5.648E+00  1.280E-03  4.340E-03  4.152E-04
   1    4   17     1    17    1.7774E+01  4.7426E-03   1.7769E+01  0.000E+00  0.000E+00  0.000E+00  1.38256E+02  3.206E+00  5.648E+00  1.280E-03  4.340E-03  4.136E-04
   1    4   18     1    18    1.7769E+01  4.7415E-03   1.7764E+01  0.000E+00  0.000E+00  0.000E+00  1.37955E+02  3.205E+00  5.647E+00  1.280E-03  4.339E-03  4.133E-04
   1    4   19     1    19    1.7764E+01  4.7405E-03   1.7760E+01  0.000E+00  0.000E+00  0.000E+00  1.37655E+02  3.205E+00  5.647E+00  1.280E-03  4.337E-03  4.143E-04
   1    4   20     1    20    1.7760E+01  4.7395E-03   1.7755E+01  0.000E+00  0.000E+00  0.000E+00  1.37355E+02  3.205E+00  5.646E+00  1.279E-03  4.334E-03  4.163E-04
   1    4   21     1    21    1.7755E+01  4.7384E-03   1.7750E+01  0.000E+00  0.000E+00  0.000E+00  1.37054E+02  3.204E+00  5.646E+00  1.279E-03  4.330E-03  4.193E-04
   1    4   22     1    22    1.7750E+01  4.7374E-03   1.7746E+01  0.000E+00  0.000E+00  0.000E+00  1.36754E+02  3.204E+00  5.645E+00  1.279E-03  4.326E-03  4.231E-04
   1    4   23     1    23    1.7746E+01  4.7363E-03   1.7741E+01  0.000E+00  0.000E+00  0.000E+00  1.36453E+02  3.203E+00  5.645E+00  1.279E-03  4.320E-03  4.276E-04
   1    4   24     1    24    1.7741E+01  4.7353E-03   1.7736E+01  0.000E+00  0.000E+00  0.000E+00  1.36153E+02  3.203E+00  5.644E+00  1.279E-03  4.314E-03  4.326E-04
   1    4   25     1    25    1.7736E+01  4.7342E-03   1.7731E+01  0.000E+00  0.000E+00  0.000E+00  1.35852E+02  3.202E+00  5.644E+00  1.279E-03  4.307E-03  4.381E-04
   1    4   26     1    26    1.7731E+01  4.7332E-03   1.7727E+01  0.000E+00  0.000E+00  0.000E+00  1.35552E+02  3.202E+00  5.643E+00  1.279E-03  4.301E-03  4.438E-04
   1    4   27     1    27    1.7727E+01  4.7321E-03   1.7722E+01  0.000E+00  0.000E+00  0.000E+00  1.35252E+02  3.202E+00  5.643E+00  1.278E-03  4.294E-03  4.497E-04
   1    4   28     1    28    1.7722E+01  4.7311E-03   1.7717E+01  0.000E+00  0.000E+00  0.000E+00  1.34951E+02  3.201E+00  5.642E+00  1.278E-03  4.287E-03  4.556E-04
   1    4   29     1    29    1.7717E+01  4.7301E-03   1.7712E+01  0.000E+00  0.000E+00  0.000E+00  1.34651E+02  3.201E+00  5.642E+00  1.278E-03  4.280E-03  4.615E-04
   1    4   30     1    30    1.7712E+01  4.7290E-03   1.7708E+01  0.000E+00  0.000E+00  0.000E+00  1.34350E+02  3.200E+00  5.641E+00  1.278E-03  4.273E-03  4.673E-04
   1    4   31     1    31    1.7708E+01  4.7280E-03   1.7703E+01  0.000E+00  0.000E+00  0.000E+00  1.34050E+02  3.200E+00  5.641E+00  1.278E-03  4.266E-03  4.728E-04
   1    4   32     1    32    1.7703E+01  4.7269E-03   1.7698E+01  0.000E+00  0.000E+00  0.000E+00  1.33749E+02  3.199E+00  5.640E+00  1.278E-03  4.260E-03  4.781E-04
   1    4   33     1    33    1.7698E+01  4.7259E-03   1.7693E+01  0.000E+00  0.000E+00  0.000E+00  1.33449E+02  3.199E+00  5.640E+00  1.278E-03  4.254E-03  4.830E-04
   1    4   34     1    34    1.7693E+01  4.7248E-03   1.7689E+01  0.000E+00  0.000E+00  0.000E+00  1.33149E+02  3.199E+00  5.639E+00  1.277E-03  4.249E-03  4.876E-04
   1    4   35     1    35    1.7689E+01  4.7238E-03   1.7684E+01  0.000E+00  0.000E+00  0.000E+00  1.32848E+02  3.198E+00  5.639E+00  1.277E-03  4.243E-03  4.918E-04
   1    4   36     1    36    1.7684E+01  4.7228E-03   1.7679E+01  0.000E+00  0.000E+00  0.000E+00  1.32548E+02  3.198E+00  5.638E+00  1.277E-03  4.238E-03  4.957E-04
   1    4   37     1    37    1.7679E+01  4.7217E-03   1.7675E+01  0.000E+00  0.000E+00  0.000E+00  1.32247E+02  3.197E+00  5.638E+00  1.277E-03  4.234E-03  4.992E-04
   1    4   38     1    38    1.7675E+01  4.7207E-03   1.7670E+01  0.000E+00  0.000E+00  0.000E+00  1.31947E+02  3.197E+00  5.637E+00  1.277E-03  4.230E-03  5.023E-04
   1    4   39     1    39    1.7670E+01  4.7196E-03   1.7665E+01  0.000E+00  0.000E+00  0.000E+00  1.31647E+02  3.197E+00  5.637E+00  1.277E-03  4.226E-03  5.050E-04
   1    4   40     1    40    1.7665E+01  4.7186E-03   1.7660E+01  0.000E+00  0.000E+00  0.000E+00  1.31346E+02  3.196E+00  5.636E+00  1.277E-03  4.223E-03  5.073E-04
   1    4   41     1    41    1.7660E+01  4.7176E-03   1.7656E+01  0.000E+00  0.000E+00  0.000E+00  1.31046E+02  3.196E+00  5.636E+00  1.276E-03  4.219E-03  5.094E-04
   1    4   42     1    42    1.7656E+01  4.7165E-03   1.7651E+01  0.000E+00  0.000E+00  0.000E+00  1.30745E+02  3.195E+00  5.635E+00  1.276E-03  4.217E-03  5.111E-04
   1    4   43     1    43    1.7651E+01  4.7155E-03   1.7646E+01  0.000E+00  0.000E+00  0.000E+00  1.30445E+02  3.195E+00  5.635E+00  1.276E-03  4.214E-03  5.125E-04
   1    4   44     1    44    1.7646E+01  4.7144E-03   1.7642E+01  0.000E+00  0.000E+00  0.000E+00  1.30144E+02  3.194E+00  5.634E+00  1.276E-03  4.212E-03  5.137E-04
   1    4   45     1    45    1.7642E+01  4.7134E-03   1.7637E+01  0.000E+00  0.000E+00  0.000E+00  1.29844E+02  3.194E+00  5.634E+00  1.276E-03  4.210E-03  5.146E-04
   1    4   46     1    46    1.7637E+01  4.7124E-03   1.7632E+01  0.000E+00  0.000E+00  0.000E+00  1.29544E+02  3.194E+00  5.633E+00  1.276E-03  4.208E-03  5.153E-04
   1    4   47     1    47    1.7632E+01  4.7113E-03   1.7627E+01  0.000E+00  0.000E+00  0.000E+00  1.29243E+02  3.193E+00  5.633E+00  1.276E-03  4.207E-03  5.158E-04
   1    4   48     1    48    1.7627E+01  4.7103E-03   1.7623E+01  0.000E+00  0.000E+00  0.000E+00  1.28943E+02  3.193E+00  5.632E+00  1.276E-03  4.206E-03  5.161E-04
   1    4   49     1    49    1.7623E+01  4.7092E-03   1.7618E+01  0.000E+00  0.000E+00  0.000E+00  1.28642E+02  3.192E+00  5.632E+00  1.275E-03  4.204E-03  5.162E-04
   1    4   50     1    50    1.7618E+01  4.7082E-03   1.7613E+01  0.000E+00  0.000E+00  0.000E+00  1.28342E+02  3.192E+00  5.631E+00  1.275E-03  4.203E-03  5.162E-04
   1    4   51     1    51    1.7613E+01  4.7072E-03   1.7609E+01  0.000E+00  0.000E+00  0.000E+00  1.28042E+02  3.192E+00  5.631E+00  1.275E-03  4.202E-03  5.160E-04
   1    4   52     1    52    1.7609E+01  4.7061E-03   1.7604E+01  0.000E+00  0.000E+00  0.000E+00  1.27741E+02  3.191E+00  5.630E+00  1.275E-03  4.202E-03  5.157E-04
   1    4   53     1    53    1.7604E+01  4.7051E-03   1.7599E+01  0.000E+00  0.000E+00  0.000E+00  1.27441E+02  3.191E+00  5.630E+00  1.275E-03  4.201E-03  5.152E-04
   1    4   54     1    54    1.7599E+01  4.7040E-03   1.7594E+01  0.000E+00  0.000E+00  0.000E+00  1.27140E+02  3.190E+00  5.629E+00  1.275E-03  4.201E-03  5.146E-04
   1    4   55     1    55    1.7594E+01  4.7030E-03   1.7590E+01  0.000E+00  0.000E+00  0.000E+00  1.26840E+02  3.190E+00  5.629E+00  1.275E-03  4.200E-03  5.139E-04
   1    4   56     1    56    1.7590E+01  4.7020E-03   1.7585E+01  0.000E+00  0.000E+00  0.000E+00  1.26539E+02  3.189E+00  5.628E+00  1.274E-03  4.200E-03  5.130E-04
   1    4   57     1    57    1.7585E+01  4.7009E-03   1.7580E+01  0.000E+00  0.000E+00  0.000E+00  1.26239E+02  3.189E+00  5.628E+00  1.274E-03  4.200E-03  5.119E-04
   1    4   58     1    58    1.7580E+01  4.6999E-03   1.7576E+01  0.000E+00  0.000E+00  0.000E+00  1.25939E+02  3.189E+00  5.627E+00  1.274E-03  4.201E-03  5.105E-04
   1    4   59     1    59    1.7576E+01  4.6989E-03   1.7571E+01  0.000E+00  0.000E+00  0.000E+00  1.25638E+02  3.188E+00  5.627E+00  1.274E-03  4.201E-03  5.089E-04
   1    4   60     1    60    1.7571E+01  4.6978E-03   1.7566E+01  0.000E+00  0.000E+00  0.000E+00  1.25338E+02  3.188E+00  5.626E+00  1.274E-03  4.202E-03  5.069E-04
   1    4   61     1    61    1.7566E+01  4.6968E-03   1.7562E+01  0.000E+00  0.000E+00  0.000E+00  1.25037E+02  3.187E+00  5.626E+00  1.274E-03  4.204E-03  5.044E-04
   1    4   62     1    62    1.7562E+01  4.6957E-03   1.7557E+01  0.000E+00  0.000E+00  0.000E+00  1.24737E+02  3.187E+00  5.625E+00  1.274E-03  4.206E-03  5.012E-04
   1    4   63     1    63    1.7557E+01  4.6947E-03   1.7552E+01  0.000E+00  0.000E+00  0.000E+00  1.24437E+02  3.186E+00  5.625E+00  1.273E-03  4.209E-03  4.973E-04
   1    4   64     1    64    1.7552E+01  4.6937E-03   1.7548E+01  0.000E+00  0.000E+00  0.000E+00  1.24136E+02  3.186E+00  5.624E+00  1.273E-03  4.213E-03  4.922E-04
   1    4   65     1    65    1.7548E+01  4.6926E-03   1.7543E+01  0.000E+00  0.000E+00  0.000E+00  1.23836E+02  3.186E+00  5.624E+00  1.273E-03  4.298E-03  4.061E-04
   1    4   66     1    66    1.7543E+01  4.6916E-03   1.7538E+01  0.000E+00  0.000E+00  0.000E+00  1.23535E+02  3.185E+00  5.623E+00  1.273E-03  4.428E-03  2.748E-04
   1    4   67     1    67    1.7538E+01  4.6906E-03   1.7533E+01  0.000E+00  0.000E+00  0.000E+00  1.23235E+02  3.185E+00  5.623E+00  1.273E-03  4.564E-03  1.377E-04
   1    4   68     1    68    1.7533E+01  4.6895E-03   1.7529E+01  0.000E+00  0.000E+00  0.000E+00  1.22934E+02  3.184E+00  5.622E+00  1.273E-03  4.707E-03 -6.212E-06
   1    4   69     1    69    1.7529E+01  4.6885E-03   1.7524E+01  0.000E+00  0.000E+00  0.000E+00  1.22634E+02  3.184E+00  5.622E+00  1.273E-03  4.848E-03 -1.480E-04
   1    4   70     1    70    1.7524E+01  4.6875E-03   1.7519E+01  0.000E+00  0.000E+00  0.000E+00  1.22334E+02  3.184E+00  5.621E+00  1.273E-03  4.859E-03 -1.598E-04
   1    4   71     1    71    1.7519E+01  4.6864E-03   1.7515E+01  0.000E+00  0.000E+00  0.000E+00  1.22033E+02  3.183E+00  5.621E+00  1.272E-03  4.860E-03 -1.619E-04
   1    4   72     1    72    1.7515E+01  4.6854E-03   1.7510E+01  0.000E+00  0.000E+00  0.000E+00  1.21733E+02  3.183E+00  5.620E+00  1.272E-03  4.834E-03 -1.371E-04
   1    4   73     1    73    1.7510E+01  4.6843E-03   1.7505E+01  0.000E+00  0.000E+00  0.000E+00  1.21432E+02  3.182E+00  5.620E+00  1.272E-03  4.742E-03 -4.627E-05
   1    4   74     1    74    1.7505E+01  4.6833E-03   1.7501E+01  0.000E+00  0.000E+00  0.000E+00  1.21132E+02  3.182E+00  5.619E+00  1.272E-03  4.496E-03  1.983E-04
   1    4   75     1    75    1.7501E+01  4.6823E-03   1.7496E+01  0.000E+00  0.000E+00  0.000E+00  1.20831E+02  3.181E+00  5.619E+00  1.272E-03  3.904E-03  7.899E-04
   1    4   76     1    76    1.7496E+01  4.6812E-03   1.7491E+01  0.000E+00  0.000E+00  0.000E+00  1.20531E+02  3.181E+00  5.618E+00  1.272E-03  3.076E-03  1.617E-03
   1    4   77     1    77    1.7491E+01  4.6802E-03   1.7487E+01  0.000E+00  0.000E+00  0.000E+00  1.20231E+02  3.181E+00  5.618E+00  1.272E-03  2.293E-03  2.399E-03
   1    4   78     1    78    1.7487E+01  4.6792E-03   1.7482E+01  0.000E+00  0.000E+00  0.000E+00  1.19930E+02  3.180E+00  5.617E+00  1.271E-03  1.595E-03  3.095E-03
   1    4   79     1    79    1.7482E+01  4.6781E-03   1.7477E+01  0.000E+00  0.000E+00  0.000E+00  1.19630E+02  3.180E+00  5.617E+00  1.271E-03  9.213E-04  3.768E-03
   1    4   80     1    80    1.7477E+01  4.6771E-03   1.7473E+01  0.000E+00  0.000E+00  0.000E+00  1.19329E+02  3.179E+00  5.616E+00  1.271E-03  2.812E-04  4.407E-03
   1    4   81     1    81    1.7473E+01  4.6761E-03   1.7468E+01  0.000E+00  0.000E+00  0.000E+00  1.19029E+02  3.179E+00  5.616E+00  1.271E-03  0.000E+00  4.687E-03
   1    4   82     1    82    1.7468E+01  4.6750E-03   1.7463E+01  0.000E+00  0.000E+00  0.000E+00  1.18729E+02  3.179E+00  5.615E+00  1.271E-03  0.000E+00  4.686E-03
   1    4   83     1    83    1.7463E+01  4.6740E-03   1.7459E+01  0.000E+00  0.000E+00  0.000E+00  1.18428E+02  3.178E+00  5.615E+00  1.271E-03  0.000E+00  4.674E-03
   1    4   84     1    84    1.7459E+01  4.6730E-03   1.7454E+01  0.000E+00  0.000E+00  0.000E+00  1.18128E+02  3.178E+00  5.614E+00  1.271E-03  0.000E+00  4.673E-03
   1    4   85     1    85    1.7454E+01  4.6719E-03   1.7449E+01  0.000E+00  0.000E+00  0.000E+00  1.17827E+02  3.177E+00  5.614E+00  1.270E-03  0.000E+00  4.672E-03
   1    4   86     1    86    1.7449E+01  4.6709E-03   1.7445E+01  0.000E+00  0.000E+00  0.000E+00  1.17527E+02  3.177E+00  5.613E+00  1.270E-03  0.000E+00  4.671E-03
   1    4   87     1    87    1.7445E+01  4.6699E-03   1.7440E+01  0.000E+00  0.000E+00  0.000E+00  1.17226E+02  3.176E+00  5.613E+00  1.270E-03  0.000E+00  4.670E-03
   1    4   88     1    88    1.7440E+01  4.6688E-03   1.7435E+01  0.000E+00  0.000E+00  0.000E+00  1.16926E+02  3.176E+00  5.612E+00  1.270E-03  0.000E+00  4.669E-03
   1    4   89     1    89    1.7435E+01  4.6678E-03   1.7431E+01  0.000E+00  0.000E+00  0.000E+00  1.16626E+02  3.176E+00  5.612E+00  1.270E-03  0.000E+00  4.668E-03
   1    4   90     1    90    1.7431E+01  4.6668E-03   1.7426E+01  0.000E+00  0.000E+00  0.000E+00  1.16325E+02  3.175E+00  5.611E+00  1.270E-03  0.000E+00  4.667E-03
   1    4   91     1    91    1.7426E+01  4.6657E-03   1.7421E+01  0.000E+00  0.000E+00  0.000E+00  1.16025E+02  3.175E+00  5.611E+00  1.270E-03  0.000E+00  4.666E-03
   1    4   92     1    92    1.7421E+01  4.6647E-03   1.7417E+01  0.000E+00  0.000E+00  0.000E+00  1.15724E+02  3.174E+00  5.610E+00  1.270E-03  0.000E+00  4.665E-03
   1    4   93     1    93    1.7417E+01  4.6637E-03   1.7412E+01  0.000E+00  0.000E+00  0.000E+00  1.15424E+02  3.174E+00  5.610E+00  1.269E-03  0.000E+00  4.664E-03
   1    4   94     1    94    1.7412E+01  4.6627E-03   1.7407E+01  0.000E+00  0.000E+00  0.000E+00  1.15124E+02  3.174E+00  5.609E+00  1.269E-03  0.000E+00  4.663E-03
   1    4   95     1    95    1.7407E+01  4.6616E-03   1.7403E+01  0.000E+00  0.000E+00  0.000E+00  1.14823E+02  3.173E+00  5.609E+00  1.269E-03  0.000E+00  4.662E-03
   1    4   96     1    96    1.7403E+01  4.6606E-03   1.7398E+01  0.000E+00  0.000E+00  0.000E+00  1.14523E+02  3.173E+00  5.608E+00  1.269E-03  0.000E+00  4.661E-03
   1    4   97     1    97    1.7398E+01  4.6596E-03   1.7393E+01  0.000E+00  0.000E+00  0.000E+00  1.14222E+02  3.172E+00  5.608E+00  1.269E-03  0.000E+00  4.660E-03
   1    4   98     1    98    1.7393E+01  4.6585E-03   1.7389E+01  0.000E+00  0.000E+00  0.000E+00  1.13922E+02  3.172E+00  5.607E+00  1.269E-03  2.755E-04  4.383E-03
   1    4   99     1    99    1.7389E+01  4.6575E-03   1.7384E+01  0.000E+00  0.000E+00  0.000E+00  1.13621E+02  3.171E+00  5.607E+00  1.269E-03  5.795E-04  4.078E-03
   1    4  100     1   100    1.7384E+01  4.6565E-03   1.7379E+01  0.000E+00  0.000E+00  0.000E+00  1.13321E+02  3.171E+00  5.606E+00  1.268E-03  8.809E-04  3.776E-03



1
  VOLUMETRIC BUDGET FOR UNSATURATED ZONE BENEATH STREAMS AT END OF TIME STEP    30 STRESS PERIOD   4
  ------------------------------------------------------------------------------------------------

    CUMULATIVE VOLUMES             L**3    RATES FOR THIS TIME STEP         L**3/T
    ------------------                     ------------------------


          STREAM LOSS =      1885068.5000            STREAM LOSS =            0.4708
    CHANGE IN STORAGE =       521410.4375      CHANGE IN STORAGE =            0.1377
       RECHARGE TO GW =      1366062.2500         RECHARGE TO GW =            0.3340

             TOTAL IN =      1885068.5000               TOTAL IN =            0.4708

            TOTAL OUT =      1887472.7500              TOTAL OUT =            0.4717

             IN - OUT =        -2404.2500               IN - OUT =       -9.2745E-04

  PERCENT DISCREPANCY =           -0.03      PERCENT DISCREPANCY =            -0.05



1
  VOLUMETRIC BUDGET FOR ENTIRE MODEL AT END OF TIME STEP   30, STRESS PERIOD   4
  ------------------------------------------------------------------------------

     CUMULATIVE VOLUMES      L**3       RATES FOR THIS TIME STEP      L**3/T
     ------------------                 ------------------------

           IN:                                      IN:
           ---                                      ---
             STORAGE =       75174.4844               STORAGE =       2.7070E-02
       CONSTANT HEAD =           0.0000         CONSTANT HEAD =           0.0000
     HEAD DEP BOUNDS =     6431960.5000       HEAD DEP BOUNDS =           0.2723
      STREAM LEAKAGE =     1377906.0000        STREAM LEAKAGE =           0.3340

            TOTAL IN =     7885041.0000              TOTAL IN =           0.6334

          OUT:                                     OUT:
          ----                                     ----
             STORAGE =     7860031.0000               STORAGE =           0.6331
       CONSTANT HEAD =           0.0000         CONSTANT HEAD =           0.0000
     HEAD DEP BOUNDS =           0.0000       HEAD DEP BOUNDS =           0.0000
      STREAM LEAKAGE =       24991.1426        STREAM LEAKAGE =           0.0000

           TOTAL OUT =     7885022.0000             TOTAL OUT =           0.6331

            IN - OUT =          19.0000              IN - OUT =       2.6309E-04

 PERCENT DISCREPANCY =           0.00     PERCENT DISCREPANCY =           0.04






         TIME SUMMARY AT END OF TIME STEP   30 IN STRESS PERIOD    4
                    SECONDS     MINUTES      HOURS       DAYS        YEARS
                    -----------------------------------------------------------
   TIME STEP LENGTH 2.49961E+05  4166.0      69.434      2.8931     7.92080E-03
 STRESS PERIOD TIME 2.59200E+06  43200.      720.00      30.000     8.21355E-02
         TOTAL TIME 1.03680E+07 1.72800E+05  2880.0      120.00     0.32854    
1
1
                            STRESS PERIOD NO.    5, LENGTH =   2592000.    
                            -----------------------------------------------

                              NUMBER OF TIME STEPS =    30

                               MULTIPLIER FOR DELT =     1.100

                            INITIAL TIME STEP SIZE =   15757.40    

 REUSING NON-PARAMETER GHB CELLS FROM LAST STRESS PERIOD

      7 GHB CELLS



 CLASSIFICATION & COUNT OF STREAM SEGMENTS BASED ON SOURCE OF INFLOW:

                HEADWATER     DIVERSION     RECEIVES TRIBUTARY FLOW
                ---------     ---------     -----------------------
                     1              0               0



                    INPUT DATA FOR EACH STREAM SEGMENT
 ---------------------------------------------------------------------------------------------

 SEGMENT    SEG.     INFLOW   OVERLAND   STREAM    STREAM   ICALC  OUTFLOW  DIVERSION PRIORITY
    NO.    LENGTH     RATE     RUNOFF      ET       PPT.    METH.  TO SEG.  FROM SEG.    NO.

      1  2.000E+04 2.026E+01 0.000E+00 0.000E+00 0.000E+00    2        0        0        0


         STREAMBED PROPERTIES AND STREAM DIMENSIONS

 SEGMENT     BED HYD. COND.      BED THICKNESS     ELEV.-TOP OF BED     WIDTH OF STREAM     DEPTH OF STREAM    STREAM ROUGHNESS
    No.     UPPER     LOWER     UPPER     LOWER     UPPER     LOWER     UPPER     LOWER     UPPER     LOWER   CHANNEL      BANK

     1  3.500E-07 3.500E-07                                                                                 3.000E-02 4.000E-02

  EIGHT POINT CROSS-SECTION DATA FOR SEGMENTS WITH ICALC = 2
    X VALUES X VALUES START FROM LEFT SIDE LOOKING DOWNSTREAM

     SEGMENT NO.        X1        X2        X3        X4        X5        X6        X7        X8
            1      0.000E+00 2.000E+00 4.000E+00 6.000E+00 8.000E+00 1.000E+01 1.200E+01 1.400E+01

    Z VALUES ARE RELATIVE TO STREAMBED ELEVATION

     SEGMENT NO.          Z1        Z2        Z3        Z4        Z5        Z6        Z7        Z8
            1      6.000E+00 4.500E+00 3.500E+00 0.000E+00 3.000E-01 3.500E+00 4.500E+00 6.000E+00




 SOLVING FOR HEAD 

 NO OUTPUT CONTROL FOR STRESS PERIOD    5   TIME STEP    1

 SOLVING FOR HEAD 

 NO OUTPUT CONTROL FOR STRESS PERIOD    5   TIME STEP    2

 SOLVING FOR HEAD 

 NO OUTPUT CONTROL FOR STRESS PERIOD    5   TIME STEP    3

 SOLVING FOR HEAD 

 NO OUTPUT CONTROL FOR STRESS PERIOD    5   TIME STEP    4

 SOLVING FOR HEAD 

 NO OUTPUT CONTROL FOR STRESS PERIOD    5   TIME STEP    5

 SOLVING FOR HEAD 

 NO OUTPUT CONTROL FOR STRESS PERIOD    5   TIME STEP    6

 SOLVING FOR HEAD 

 NO OUTPUT CONTROL FOR STRESS PERIOD    5   TIME STEP    7

 SOLVING FOR HEAD 

 NO OUTPUT CONTROL FOR STRESS PERIOD    5   TIME STEP    8

 SOLVING FOR HEAD 

 NO OUTPUT CONTROL FOR STRESS PERIOD    5   TIME STEP    9

 SOLVING FOR HEAD 

 NO OUTPUT CONTROL FOR STRESS PERIOD    5   TIME STEP   10

 SOLVING FOR HEAD 

 NO OUTPUT CONTROL FOR STRESS PERIOD    5   TIME STEP   11

 SOLVING FOR HEAD 

 NO OUTPUT CONTROL FOR STRESS PERIOD    5   TIME STEP   12

 SOLVING FOR HEAD 

 NO OUTPUT CONTROL FOR STRESS PERIOD    5   TIME STEP   13

 SOLVING FOR HEAD 

 NO OUTPUT CONTROL FOR STRESS PERIOD    5   TIME STEP   14

 SOLVING FOR HEAD 

 NO OUTPUT CONTROL FOR STRESS PERIOD    5   TIME STEP   15

 SOLVING FOR HEAD 

 NO OUTPUT CONTROL FOR STRESS PERIOD    5   TIME STEP   16

 SOLVING FOR HEAD 

 NO OUTPUT CONTROL FOR STRESS PERIOD    5   TIME STEP   17

 SOLVING FOR HEAD 

 NO OUTPUT CONTROL FOR STRESS PERIOD    5   TIME STEP   18

 SOLVING FOR HEAD 

 NO OUTPUT CONTROL FOR STRESS PERIOD    5   TIME STEP   19

 SOLVING FOR HEAD 

 NO OUTPUT CONTROL FOR STRESS PERIOD    5   TIME STEP   20

 SOLVING FOR HEAD 

 NO OUTPUT CONTROL FOR STRESS PERIOD    5   TIME STEP   21

 SOLVING FOR HEAD 

 NO OUTPUT CONTROL FOR STRESS PERIOD    5   TIME STEP   22

 SOLVING FOR HEAD 

 NO OUTPUT CONTROL FOR STRESS PERIOD    5   TIME STEP   23

 SOLVING FOR HEAD 

 NO OUTPUT CONTROL FOR STRESS PERIOD    5   TIME STEP   24

 SOLVING FOR HEAD 

 NO OUTPUT CONTROL FOR STRESS PERIOD    5   TIME STEP   25

 SOLVING FOR HEAD 

 NO OUTPUT CONTROL FOR STRESS PERIOD    5   TIME STEP   26

 SOLVING FOR HEAD 

 NO OUTPUT CONTROL FOR STRESS PERIOD    5   TIME STEP   27

 SOLVING FOR HEAD 

 NO OUTPUT CONTROL FOR STRESS PERIOD    5   TIME STEP   28

 SOLVING FOR HEAD 

 NO OUTPUT CONTROL FOR STRESS PERIOD    5   TIME STEP   29

 SOLVING FOR HEAD 

 OUTPUT CONTROL FOR STRESS PERIOD    5   TIME STEP   30
    PRINT HEAD FOR ALL LAYERS
    PRINT BUDGET
    SAVE BUDGET

  HEAD DEP BOUNDS   PERIOD    5   STEP  30
 BOUNDARY      1   LAYER   1   ROW     1   COL     1   RATE    3.451747E-02
 BOUNDARY      2   LAYER   1   ROW     2   COL     1   RATE    3.435340E-02
 BOUNDARY      3   LAYER   1   ROW     3   COL     1   RATE    3.328471E-02
 BOUNDARY      4   LAYER   1   ROW     4   COL     1   RATE    1.915188E-02
 BOUNDARY      5   LAYER   1   ROW     5   COL     1   RATE    3.328471E-02
 BOUNDARY      6   LAYER   1   ROW     6   COL     1   RATE    3.435340E-02
 BOUNDARY      7   LAYER   1   ROW     7   COL     1   RATE    3.451747E-02



 STREAM LISTING     PERIOD      5   STEP       30

 LAYER ROW COL. STREAM  RCH.   FLOW INTO    STREAM     FLOW OUT OF   OVRLND.    DIRECT     STREAM      STREAM      STREAM     STREAM  STREAMBED   FLOW TO   CHNG. UNSAT. 
                SEG.NO.  NO.   STRM. RCH.    LOSS       STRM. RCH.   RUNOFF     PRECIP       ET         HEAD        DEPTH      WIDTH  CONDCTNC.   WAT. TAB.

   1    4    1     1     1    2.0260E+01  5.2848E-03   2.0255E+01  0.000E+00  0.000E+00  0.000E+00  1.43268E+02  3.418E+00  5.902E+00  1.349E-03  0.000E+00  0.000E+00
   1    4    2     1     2    2.0255E+01  5.2837E-03   2.0249E+01  0.000E+00  0.000E+00  0.000E+00  1.42967E+02  3.417E+00  5.901E+00  1.349E-03  5.302E-03 -1.849E-05
   1    4    3     1     3    2.0249E+01  5.2825E-03   2.0244E+01  0.000E+00  0.000E+00  0.000E+00  1.42667E+02  3.417E+00  5.901E+00  1.349E-03  5.320E-03 -3.703E-05
   1    4    4     1     4    2.0244E+01  5.2814E-03   2.0239E+01  0.000E+00  0.000E+00  0.000E+00  1.42366E+02  3.416E+00  5.900E+00  1.349E-03  5.337E-03 -5.549E-05
   1    4    5     1     5    2.0239E+01  5.2803E-03   2.0234E+01  0.000E+00  0.000E+00  0.000E+00  1.42066E+02  3.416E+00  5.899E+00  1.348E-03  5.354E-03 -7.364E-05
   1    4    6     1     6    2.0234E+01  5.2791E-03   2.0228E+01  0.000E+00  0.000E+00  0.000E+00  1.41766E+02  3.416E+00  5.899E+00  1.348E-03  5.370E-03 -9.131E-05
   1    4    7     1     7    2.0228E+01  5.2780E-03   2.0223E+01  0.000E+00  0.000E+00  0.000E+00  1.41465E+02  3.415E+00  5.898E+00  1.348E-03  5.386E-03 -1.083E-04
   1    4    8     1     8    2.0223E+01  5.2768E-03   2.0218E+01  0.000E+00  0.000E+00  0.000E+00  1.41165E+02  3.415E+00  5.898E+00  1.348E-03  5.401E-03 -1.245E-04
   1    4    9     1     9    2.0218E+01  5.2757E-03   2.0212E+01  0.000E+00  0.000E+00  0.000E+00  1.40864E+02  3.414E+00  5.897E+00  1.348E-03  5.415E-03 -1.398E-04
   1    4   10     1    10    2.0212E+01  5.2746E-03   2.0207E+01  0.000E+00  0.000E+00  0.000E+00  1.40564E+02  3.414E+00  5.897E+00  1.348E-03  5.429E-03 -1.540E-04
   1    4   11     1    11    2.0207E+01  5.2734E-03   2.0202E+01  0.000E+00  0.000E+00  0.000E+00  1.40263E+02  3.413E+00  5.896E+00  1.348E-03  5.440E-03 -1.669E-04
   1    4   12     1    12    2.0202E+01  5.2723E-03   2.0197E+01  0.000E+00  0.000E+00  0.000E+00  1.39963E+02  3.413E+00  5.896E+00  1.347E-03  5.451E-03 -1.786E-04
   1    4   13     1    13    2.0197E+01  5.2711E-03   2.0191E+01  0.000E+00  0.000E+00  0.000E+00  1.39663E+02  3.413E+00  5.895E+00  1.347E-03  5.460E-03 -1.889E-04
   1    4   14     1    14    2.0191E+01  5.2700E-03   2.0186E+01  0.000E+00  0.000E+00  0.000E+00  1.39362E+02  3.412E+00  5.895E+00  1.347E-03  5.468E-03 -1.977E-04
   1    4   15     1    15    2.0186E+01  5.2689E-03   2.0181E+01  0.000E+00  0.000E+00  0.000E+00  1.39062E+02  3.412E+00  5.894E+00  1.347E-03  5.474E-03 -2.051E-04
   1    4   16     1    16    2.0181E+01  5.2677E-03   2.0176E+01  0.000E+00  0.000E+00  0.000E+00  1.38761E+02  3.411E+00  5.894E+00  1.347E-03  5.479E-03 -2.110E-04
   1    4   17     1    17    2.0176E+01  5.2666E-03   2.0170E+01  0.000E+00  0.000E+00  0.000E+00  1.38461E+02  3.411E+00  5.893E+00  1.347E-03  5.482E-03 -2.155E-04
   1    4   18     1    18    2.0170E+01  5.2654E-03   2.0165E+01  0.000E+00  0.000E+00  0.000E+00  1.38160E+02  3.410E+00  5.893E+00  1.347E-03  5.484E-03 -2.186E-04
   1    4   19     1    19    2.0165E+01  5.2643E-03   2.0160E+01  0.000E+00  0.000E+00  0.000E+00  1.37860E+02  3.410E+00  5.892E+00  1.346E-03  5.485E-03 -2.203E-04
   1    4   20     1    20    2.0160E+01  5.2632E-03   2.0155E+01  0.000E+00  0.000E+00  0.000E+00  1.37559E+02  3.409E+00  5.892E+00  1.346E-03  5.484E-03 -2.207E-04
   1    4   21     1    21    2.0155E+01  5.2620E-03   2.0149E+01  0.000E+00  0.000E+00  0.000E+00  1.37259E+02  3.409E+00  5.891E+00  1.346E-03  5.482E-03 -2.199E-04
   1    4   22     1    22    2.0149E+01  5.2609E-03   2.0144E+01  0.000E+00  0.000E+00  0.000E+00  1.36959E+02  3.409E+00  5.891E+00  1.346E-03  5.479E-03 -2.180E-04
   1    4   23     1    23    2.0144E+01  5.2598E-03   2.0139E+01  0.000E+00  0.000E+00  0.000E+00  1.36658E+02  3.408E+00  5.890E+00  1.346E-03  5.475E-03 -2.151E-04
   1    4   24     1    24    2.0139E+01  5.2586E-03   2.0133E+01  0.000E+00  0.000E+00  0.000E+00  1.36358E+02  3.408E+00  5.890E+00  1.346E-03  5.470E-03 -2.113E-04
   1    4   25     1    25    2.0133E+01  5.2575E-03   2.0128E+01  0.000E+00  0.000E+00  0.000E+00  1.36057E+02  3.407E+00  5.889E+00  1.346E-03  5.464E-03 -2.067E-04
   1    4   26     1    26    2.0128E+01  5.2563E-03   2.0123E+01  0.000E+00  0.000E+00  0.000E+00  1.35757E+02  3.407E+00  5.889E+00  1.345E-03  5.458E-03 -2.015E-04
   1    4   27     1    27    2.0123E+01  5.2552E-03   2.0118E+01  0.000E+00  0.000E+00  0.000E+00  1.35456E+02  3.406E+00  5.888E+00  1.345E-03  5.451E-03 -1.957E-04
   1    4   28     1    28    2.0118E+01  5.2541E-03   2.0112E+01  0.000E+00  0.000E+00  0.000E+00  1.35156E+02  3.406E+00  5.888E+00  1.345E-03  5.444E-03 -1.896E-04
   1    4   29     1    29    2.0112E+01  5.2529E-03   2.0107E+01  0.000E+00  0.000E+00  0.000E+00  1.34856E+02  3.406E+00  5.887E+00  1.345E-03  5.436E-03 -1.832E-04
   1    4   30     1    30    2.0107E+01  5.2518E-03   2.0102E+01  0.000E+00  0.000E+00  0.000E+00  1.34555E+02  3.405E+00  5.887E+00  1.345E-03  5.428E-03 -1.766E-04
   1    4   31     1    31    2.0102E+01  5.2507E-03   2.0097E+01  0.000E+00  0.000E+00  0.000E+00  1.34255E+02  3.405E+00  5.886E+00  1.345E-03  5.421E-03 -1.699E-04
   1    4   32     1    32    2.0097E+01  5.2495E-03   2.0091E+01  0.000E+00  0.000E+00  0.000E+00  1.33954E+02  3.404E+00  5.885E+00  1.345E-03  5.413E-03 -1.633E-04
   1    4   33     1    33    2.0091E+01  5.2484E-03   2.0086E+01  0.000E+00  0.000E+00  0.000E+00  1.33654E+02  3.404E+00  5.885E+00  1.344E-03  5.405E-03 -1.567E-04
   1    4   34     1    34    2.0086E+01  5.2473E-03   2.0081E+01  0.000E+00  0.000E+00  0.000E+00  1.33353E+02  3.403E+00  5.884E+00  1.344E-03  5.398E-03 -1.502E-04
   1    4   35     1    35    2.0081E+01  5.2461E-03   2.0076E+01  0.000E+00  0.000E+00  0.000E+00  1.33053E+02  3.403E+00  5.884E+00  1.344E-03  5.390E-03 -1.440E-04
   1    4   36     1    36    2.0076E+01  5.2450E-03   2.0070E+01  0.000E+00  0.000E+00  0.000E+00  1.32753E+02  3.403E+00  5.883E+00  1.344E-03  5.383E-03 -1.381E-04
   1    4   37     1    37    2.0070E+01  5.2439E-03   2.0065E+01  0.000E+00  0.000E+00  0.000E+00  1.32452E+02  3.402E+00  5.883E+00  1.344E-03  5.376E-03 -1.324E-04
   1    4   38     1    38    2.0065E+01  5.2427E-03   2.0060E+01  0.000E+00  0.000E+00  0.000E+00  1.32152E+02  3.402E+00  5.882E+00  1.344E-03  5.370E-03 -1.271E-04
   1    4   39     1    39    2.0060E+01  5.2416E-03   2.0055E+01  0.000E+00  0.000E+00  0.000E+00  1.31851E+02  3.401E+00  5.882E+00  1.344E-03  5.364E-03 -1.221E-04
   1    4   40     1    40    2.0055E+01  5.2405E-03   2.0049E+01  0.000E+00  0.000E+00  0.000E+00  1.31551E+02  3.401E+00  5.881E+00  1.343E-03  5.358E-03 -1.175E-04
   1    4   41     1    41    2.0049E+01  5.2393E-03   2.0044E+01  0.000E+00  0.000E+00  0.000E+00  1.31250E+02  3.400E+00  5.881E+00  1.343E-03  5.353E-03 -1.133E-04
   1    4   42     1    42    2.0044E+01  5.2382E-03   2.0039E+01  0.000E+00  0.000E+00  0.000E+00  1.30950E+02  3.400E+00  5.880E+00  1.343E-03  5.348E-03 -1.095E-04
   1    4   43     1    43    2.0039E+01  5.2371E-03   2.0034E+01  0.000E+00  0.000E+00  0.000E+00  1.30650E+02  3.400E+00  5.880E+00  1.343E-03  5.343E-03 -1.060E-04
   1    4   44     1    44    2.0034E+01  5.2359E-03   2.0029E+01  0.000E+00  0.000E+00  0.000E+00  1.30349E+02  3.399E+00  5.879E+00  1.343E-03  5.339E-03 -1.030E-04
   1    4   45     1    45    2.0029E+01  5.2348E-03   2.0023E+01  0.000E+00  0.000E+00  0.000E+00  1.30049E+02  3.399E+00  5.879E+00  1.343E-03  5.335E-03 -1.003E-04
   1    4   46     1    46    2.0023E+01  5.2337E-03   2.0018E+01  0.000E+00  0.000E+00  0.000E+00  1.29748E+02  3.398E+00  5.878E+00  1.343E-03  5.332E-03 -9.800E-05
   1    4   47     1    47    2.0018E+01  5.2325E-03   2.0013E+01  0.000E+00  0.000E+00  0.000E+00  1.29448E+02  3.398E+00  5.878E+00  1.342E-03  5.329E-03 -9.609E-05
   1    4   48     1    48    2.0013E+01  5.2314E-03   2.0008E+01  0.000E+00  0.000E+00  0.000E+00  1.29147E+02  3.397E+00  5.877E+00  1.342E-03  5.326E-03 -9.458E-05
   1    4   49     1    49    2.0008E+01  5.2303E-03   2.0002E+01  0.000E+00  0.000E+00  0.000E+00  1.28847E+02  3.397E+00  5.877E+00  1.342E-03  5.324E-03 -9.347E-05
   1    4   50     1    50    2.0002E+01  5.2291E-03   1.9997E+01  0.000E+00  0.000E+00  0.000E+00  1.28546E+02  3.396E+00  5.876E+00  1.342E-03  5.322E-03 -9.279E-05
   1    4   51     1    51    1.9997E+01  5.2280E-03   1.9992E+01  0.000E+00  0.000E+00  0.000E+00  1.28246E+02  3.396E+00  5.876E+00  1.342E-03  5.321E-03 -9.256E-05
   1    4   52     1    52    1.9992E+01  5.2269E-03   1.9987E+01  0.000E+00  0.000E+00  0.000E+00  1.27946E+02  3.396E+00  5.875E+00  1.342E-03  5.320E-03 -9.281E-05
   1    4   53     1    53    1.9987E+01  5.2257E-03   1.9981E+01  0.000E+00  0.000E+00  0.000E+00  1.27645E+02  3.395E+00  5.875E+00  1.342E-03  5.319E-03 -9.361E-05
   1    4   54     1    54    1.9981E+01  5.2246E-03   1.9976E+01  0.000E+00  0.000E+00  0.000E+00  1.27345E+02  3.395E+00  5.874E+00  1.341E-03  5.320E-03 -9.501E-05
   1    4   55     1    55    1.9976E+01  5.2235E-03   1.9971E+01  0.000E+00  0.000E+00  0.000E+00  1.27044E+02  3.394E+00  5.874E+00  1.341E-03  5.321E-03 -9.710E-05
   1    4   56     1    56    1.9971E+01  5.2223E-03   1.9966E+01  0.000E+00  0.000E+00  0.000E+00  1.26744E+02  3.394E+00  5.873E+00  1.341E-03  5.322E-03 -9.998E-05
   1    4   57     1    57    1.9966E+01  5.2212E-03   1.9961E+01  0.000E+00  0.000E+00  0.000E+00  1.26443E+02  3.393E+00  5.873E+00  1.341E-03  5.325E-03 -1.038E-04
   1    4   58     1    58    1.9961E+01  5.2201E-03   1.9955E+01  0.000E+00  0.000E+00  0.000E+00  1.26143E+02  3.393E+00  5.872E+00  1.341E-03  5.329E-03 -1.087E-04
   1    4   59     1    59    1.9955E+01  5.2190E-03   1.9950E+01  0.000E+00  0.000E+00  0.000E+00  1.25843E+02  3.393E+00  5.871E+00  1.341E-03  5.334E-03 -1.150E-04
   1    4   60     1    60    1.9950E+01  5.2178E-03   1.9945E+01  0.000E+00  0.000E+00  0.000E+00  1.25542E+02  3.392E+00  5.871E+00  1.341E-03  5.341E-03 -1.230E-04
   1    4   61     1    61    1.9945E+01  5.2167E-03   1.9940E+01  0.000E+00  0.000E+00  0.000E+00  1.25242E+02  3.392E+00  5.870E+00  1.340E-03  5.350E-03 -1.330E-04
   1    4   62     1    62    1.9940E+01  5.2156E-03   1.9934E+01  0.000E+00  0.000E+00  0.000E+00  1.24941E+02  3.391E+00  5.870E+00  1.340E-03  5.361E-03 -1.455E-04
   1    4   63     1    63    1.9934E+01  5.2144E-03   1.9929E+01  0.000E+00  0.000E+00  0.000E+00  1.24641E+02  3.391E+00  5.869E+00  1.340E-03  5.375E-03 -1.609E-04
   1    4   64     1    64    1.9929E+01  5.2133E-03   1.9924E+01  0.000E+00  0.000E+00  0.000E+00  1.24340E+02  3.390E+00  5.869E+00  1.340E-03  5.393E-03 -1.794E-04
   1    4   65     1    65    1.9924E+01  5.2122E-03   1.9919E+01  0.000E+00  0.000E+00  0.000E+00  1.24040E+02  3.390E+00  5.868E+00  1.340E-03  5.413E-03 -2.004E-04
   1    4   66     1    66    1.9919E+01  5.2111E-03   1.9914E+01  0.000E+00  0.000E+00  0.000E+00  1.23740E+02  3.390E+00  5.868E+00  1.340E-03  5.432E-03 -2.209E-04
   1    4   67     1    67    1.9914E+01  5.2099E-03   1.9908E+01  0.000E+00  0.000E+00  0.000E+00  1.23439E+02  3.389E+00  5.867E+00  1.340E-03  5.442E-03 -2.321E-04
   1    4   68     1    68    1.9908E+01  5.2088E-03   1.9903E+01  0.000E+00  0.000E+00  0.000E+00  1.23139E+02  3.389E+00  5.867E+00  1.339E-03  5.421E-03 -2.120E-04
   1    4   69     1    69    1.9903E+01  5.2077E-03   1.9898E+01  0.000E+00  0.000E+00  0.000E+00  1.22838E+02  3.388E+00  5.866E+00  1.339E-03  5.317E-03 -1.093E-04
   1    4   70     1    70    1.9898E+01  5.2065E-03   1.9893E+01  0.000E+00  0.000E+00  0.000E+00  1.22538E+02  3.388E+00  5.866E+00  1.339E-03  5.013E-03  1.935E-04
   1    4   71     1    71    1.9893E+01  5.2054E-03   1.9888E+01  0.000E+00  0.000E+00  0.000E+00  1.22237E+02  3.387E+00  5.865E+00  1.339E-03  4.450E-03  7.558E-04
   1    4   72     1    72    1.9888E+01  5.2043E-03   1.9882E+01  0.000E+00  0.000E+00  0.000E+00  1.21937E+02  3.387E+00  5.865E+00  1.339E-03  3.784E-03  1.421E-03
   1    4   73     1    73    1.9882E+01  5.2032E-03   1.9877E+01  0.000E+00  0.000E+00  0.000E+00  1.21637E+02  3.387E+00  5.864E+00  1.339E-03  3.139E-03  2.065E-03
   1    4   74     1    74    1.9877E+01  5.2020E-03   1.9872E+01  0.000E+00  0.000E+00  0.000E+00  1.21336E+02  3.386E+00  5.864E+00  1.339E-03  2.520E-03  2.682E-03
   1    4   75     1    75    1.9872E+01  5.2009E-03   1.9867E+01  0.000E+00  0.000E+00  0.000E+00  1.21036E+02  3.386E+00  5.863E+00  1.338E-03  2.051E-03  3.150E-03
   1    4   76     1    76    1.9867E+01  5.1998E-03   1.9862E+01  0.000E+00  0.000E+00  0.000E+00  1.20735E+02  3.385E+00  5.863E+00  1.338E-03  1.671E-03  3.528E-03
   1    4   77     1    77    1.9862E+01  5.1987E-03   1.9856E+01  0.000E+00  0.000E+00  0.000E+00  1.20435E+02  3.385E+00  5.862E+00  1.338E-03  1.326E-03  3.873E-03
   1    4   78     1    78    1.9856E+01  5.1975E-03   1.9851E+01  0.000E+00  0.000E+00  0.000E+00  1.20134E+02  3.384E+00  5.862E+00  1.338E-03  1.016E-03  4.182E-03
   1    4   79     1    79    1.9851E+01  5.1964E-03   1.9846E+01  0.000E+00  0.000E+00  0.000E+00  1.19834E+02  3.384E+00  5.861E+00  1.338E-03  7.447E-04  4.452E-03
   1    4   80     1    80    1.9846E+01  5.1953E-03   1.9841E+01  0.000E+00  0.000E+00  0.000E+00  1.19534E+02  3.384E+00  5.861E+00  1.338E-03  5.167E-04  4.679E-03
   1    4   81     1    81    1.9841E+01  5.1941E-03   1.9836E+01  0.000E+00  0.000E+00  0.000E+00  1.19233E+02  3.383E+00  5.860E+00  1.338E-03  3.325E-04  4.862E-03
   1    4   82     1    82    1.9836E+01  5.1930E-03   1.9830E+01  0.000E+00  0.000E+00  0.000E+00  1.18933E+02  3.383E+00  5.860E+00  1.337E-03  1.912E-04  5.002E-03
   1    4   83     1    83    1.9830E+01  5.1919E-03   1.9825E+01  0.000E+00  0.000E+00  0.000E+00  1.18632E+02  3.382E+00  5.859E+00  1.337E-03  9.366E-05  5.098E-03
   1    4   84     1    84    1.9825E+01  5.1566E-03   1.9820E+01  0.000E+00  0.000E+00  0.000E+00  1.18332E+02  3.382E+00  5.859E+00  1.337E-03  2.175E-04  4.939E-03
   1    4   85     1    85    1.9820E+01  5.1897E-03   1.9815E+01  0.000E+00  0.000E+00  0.000E+00  1.18031E+02  3.381E+00  5.858E+00  1.337E-03  7.166E-04  4.473E-03
   1    4   86     1    86    1.9815E+01  5.1885E-03   1.9810E+01  0.000E+00  0.000E+00  0.000E+00  1.17731E+02  3.381E+00  5.858E+00  1.337E-03  1.214E-03  3.975E-03
   1    4   87     1    87    1.9810E+01  5.1874E-03   1.9805E+01  0.000E+00  0.000E+00  0.000E+00  1.17430E+02  3.380E+00  5.857E+00  1.337E-03  1.707E-03  3.480E-03
   1    4   88     1    88    1.9805E+01  5.1863E-03   1.9799E+01  0.000E+00  0.000E+00  0.000E+00  1.17130E+02  3.380E+00  5.856E+00  1.337E-03  2.193E-03  2.993E-03
   1    4   89     1    89    1.9799E+01  5.1852E-03   1.9794E+01  0.000E+00  0.000E+00  0.000E+00  1.16830E+02  3.380E+00  5.856E+00  1.337E-03  2.671E-03  2.515E-03
   1    4   90     1    90    1.9794E+01  5.1840E-03   1.9789E+01  0.000E+00  0.000E+00  0.000E+00  1.16529E+02  3.379E+00  5.855E+00  1.336E-03  3.230E-03  1.954E-03
   1    4   91     1    91    1.9789E+01  5.1829E-03   1.9784E+01  0.000E+00  0.000E+00  0.000E+00  1.16229E+02  3.379E+00  5.855E+00  1.336E-03  3.858E-03  1.325E-03
   1    4   92     1    92    1.9784E+01  5.1818E-03   1.9779E+01  0.000E+00  0.000E+00  0.000E+00  1.15928E+02  3.378E+00  5.854E+00  1.336E-03  4.463E-03  7.188E-04
   1    4   93     1    93    1.9779E+01  5.1807E-03   1.9773E+01  0.000E+00  0.000E+00  0.000E+00  1.15628E+02  3.378E+00  5.854E+00  1.336E-03  5.043E-03  1.382E-04
   1    4   94     1    94    1.9773E+01  4.7830E-03   1.9769E+01  0.000E+00  0.000E+00  0.000E+00  1.15327E+02  3.377E+00  5.853E+00  1.336E-03  0.000E+00  0.000E+00
   1    4   95     1    95    1.9769E+01  4.2793E-03   1.9764E+01  0.000E+00  0.000E+00  0.000E+00  1.15027E+02  3.377E+00  5.853E+00  1.336E-03  0.000E+00  0.000E+00
   1    4   96     1    96    1.9764E+01  3.7995E-03   1.9761E+01  0.000E+00  0.000E+00  0.000E+00  1.14727E+02  3.377E+00  5.853E+00  1.336E-03  0.000E+00  0.000E+00
   1    4   97     1    97    1.9761E+01  3.3407E-03   1.9757E+01  0.000E+00  0.000E+00  0.000E+00  1.14426E+02  3.376E+00  5.852E+00  1.335E-03  0.000E+00  0.000E+00
   1    4   98     1    98    1.9757E+01  2.9001E-03   1.9754E+01  0.000E+00  0.000E+00  0.000E+00  1.14126E+02  3.376E+00  5.852E+00  1.335E-03  0.000E+00  0.000E+00
   1    4   99     1    99    1.9754E+01  2.4755E-03   1.9752E+01  0.000E+00  0.000E+00  0.000E+00  1.13826E+02  3.376E+00  5.852E+00  1.335E-03  0.000E+00  0.000E+00
   1    4  100     1   100    1.9752E+01  2.0646E-03   1.9750E+01  0.000E+00  0.000E+00  0.000E+00  1.13526E+02  3.376E+00  5.851E+00  1.335E-03  0.000E+00  0.000E+00



1
  VOLUMETRIC BUDGET FOR UNSATURATED ZONE BENEATH STREAMS AT END OF TIME STEP    30 STRESS PERIOD   5
  ------------------------------------------------------------------------------------------------

    CUMULATIVE VOLUMES             L**3    RATES FOR THIS TIME STEP         L**3/T
    ------------------                     ------------------------


          STREAM LOSS =      3141201.0000            STREAM LOSS =            0.4866
    CHANGE IN STORAGE =       524558.7500      CHANGE IN STORAGE =        6.2565E-02
       RECHARGE TO GW =      2619073.2500         RECHARGE TO GW =            0.4240

             TOTAL IN =      3141201.0000               TOTAL IN =            0.4866

            TOTAL OUT =      3143632.0000              TOTAL OUT =            0.4866

             IN - OUT =        -2431.0000               IN - OUT =            0.0000

  PERCENT DISCREPANCY =           -0.02      PERCENT DISCREPANCY =             0.00



1
              HEAD IN LAYER   1 AT END OF TIME STEP  30 IN STRESS PERIOD    5
  ---------------------------------------------------------------------------

          1      2      3      4      5      6      7      8      9     10
         11     12     13     14     15     16     17     18     19     20
         21     22     23     24     25     26     27     28     29     30
         31     32     33     34     35     36     37     38     39     40
         41     42     43     44     45     46     47     48     49     50
         51     52     53     54     55     56     57     58     59     60
         61     62     63     64     65     66     67     68     69     70
         71     72     73     74     75     76     77     78     79     80
         81     82     83     84     85     86     87     88     89     90
         91     92     93     94     95     96     97     98     99    100
 .........................................................................
   1   125.0  124.2  123.4  122.6  121.8  121.0  120.2  119.4  118.5  117.7
       116.9  116.2  115.4  114.7  113.9  113.3  112.6  112.0  111.4  110.8
       110.3  109.8  109.3  108.9  108.5  108.1  107.8  107.5  107.2  106.9
       106.7  106.5  106.3  106.1  106.0  105.9  105.8  105.7  105.6  105.5
       105.4  105.4  105.3  105.3  105.3  105.2  105.2  105.2  105.2  105.2
       105.2  105.2  105.2  105.2  105.2  105.2  105.2  105.3  105.3  105.4
       105.4  105.5  105.6  105.7  105.9  106.0  106.2  106.5  106.8  107.1
       107.4  107.6  107.9  108.1  108.3  108.5  108.7  108.9  109.1  109.3
       109.5  109.7  109.9  110.1  110.3  110.5  110.7  110.9  111.1  111.2
       111.4  111.5  111.6  111.7  111.8  111.9  111.9  111.9  112.0  112.0
   2   125.0  124.2  123.4  122.6  121.8  121.0  120.2  119.4  118.5  117.7
       116.9  116.2  115.4  114.7  113.9  113.3  112.6  112.0  111.4  110.8
       110.3  109.8  109.3  108.9  108.5  108.1  107.8  107.5  107.2  106.9
       106.7  106.5  106.3  106.1  106.0  105.9  105.8  105.7  105.6  105.5
       105.4  105.4  105.3  105.3  105.3  105.2  105.2  105.2  105.2  105.2
       105.2  105.2  105.2  105.2  105.2  105.2  105.3  105.3  105.3  105.4
       105.4  105.5  105.6  105.7  105.9  106.0  106.2  106.5  106.8  107.1
       107.4  107.6  107.9  108.1  108.3  108.5  108.7  108.9  109.1  109.3
       109.5  109.7  109.9  110.1  110.3  110.5  110.7  110.9  111.1  111.2
       111.4  111.5  111.6  111.7  111.8  111.9  111.9  111.9  112.0  112.0
   3   125.0  124.2  123.4  122.6  121.8  121.0  120.2  119.4  118.6  117.7
       116.9  116.2  115.4  114.7  114.0  113.3  112.6  112.0  111.4  110.8
       110.3  109.8  109.3  108.9  108.5  108.1  107.8  107.5  107.2  106.9
       106.7  106.5  106.3  106.2  106.0  105.9  105.8  105.7  105.6  105.5
       105.4  105.4  105.3  105.3  105.3  105.3  105.2  105.2  105.2  105.2
       105.2  105.2  105.2  105.2  105.2  105.2  105.3  105.3  105.3  105.4
       105.4  105.5  105.6  105.7  105.9  106.0  106.3  106.5  106.8  107.1
       107.4  107.6  107.9  108.1  108.3  108.5  108.7  108.9  109.2  109.3
       109.5  109.7  109.9  110.1  110.3  110.5  110.7  110.9  111.1  111.2
       111.4  111.5  111.6  111.7  111.8  111.9  111.9  111.9  112.0  112.0
   4   125.0  124.2  123.5  122.7  121.8  121.0  120.2  119.4  118.6  117.8
       117.0  116.2  115.4  114.7  114.0  113.3  112.6  112.0  111.4  110.8
       110.3  109.8  109.3  108.9  108.5  108.1  107.8  107.5  107.2  106.9
       106.7  106.5  106.3  106.2  106.0  105.9  105.8  105.7  105.6  105.5
       105.5  105.4  105.4  105.3  105.3  105.3  105.2  105.2  105.2  105.2
       105.2  105.2  105.2  105.2  105.2  105.2  105.3  105.3  105.3  105.4
       105.5  105.5  105.6  105.7  105.9  106.1  106.3  106.5  106.8  107.1
       107.4  107.6  107.9  108.1  108.3  108.5  108.7  109.0  109.2  109.3
       109.5  109.7  109.9  110.1  110.3  110.5  110.7  110.9  111.1  111.2
       111.4  111.5  111.7  111.7  111.8  111.9  111.9  112.0  112.0  112.0
   5   125.0  124.2  123.4  122.6  121.8  121.0  120.2  119.4  118.6  117.7
       116.9  116.2  115.4  114.7  114.0  113.3  112.6  112.0  111.4  110.8
       110.3  109.8  109.3  108.9  108.5  108.1  107.8  107.5  107.2  106.9
       106.7  106.5  106.3  106.2  106.0  105.9  105.8  105.7  105.6  105.5
       105.4  105.4  105.3  105.3  105.3  105.3  105.2  105.2  105.2  105.2
       105.2  105.2  105.2  105.2  105.2  105.2  105.3  105.3  105.3  105.4
       105.4  105.5  105.6  105.7  105.9  106.0  106.3  106.5  106.8  107.1
       107.4  107.6  107.9  108.1  108.3  108.5  108.7  108.9  109.2  109.3
       109.5  109.7  109.9  110.1  110.3  110.5  110.7  110.9  111.1  111.2
       111.4  111.5  111.6  111.7  111.8  111.9  111.9  111.9  112.0  112.0
   6   125.0  124.2  123.4  122.6  121.8  121.0  120.2  119.4  118.5  117.7
       116.9  116.2  115.4  114.7  113.9  113.3  112.6  112.0  111.4  110.8
       110.3  109.8  109.3  108.9  108.5  108.1  107.8  107.5  107.2  106.9
       106.7  106.5  106.3  106.1  106.0  105.9  105.8  105.7  105.6  105.5
       105.4  105.4  105.3  105.3  105.3  105.2  105.2  105.2  105.2  105.2
       105.2  105.2  105.2  105.2  105.2  105.2  105.3  105.3  105.3  105.4
       105.4  105.5  105.6  105.7  105.9  106.0  106.2  106.5  106.8  107.1
       107.4  107.6  107.9  108.1  108.3  108.5  108.7  108.9  109.1  109.3
       109.5  109.7  109.9  110.1  110.3  110.5  110.7  110.9  111.1  111.2
       111.4  111.5  111.6  111.7  111.8  111.9  111.9  111.9  112.0  112.0
   7   125.0  124.2  123.4  122.6  121.8  121.0  120.2  119.4  118.5  117.7
       116.9  116.2  115.4  114.7  113.9  113.3  112.6  112.0  111.4  110.8
       110.3  109.8  109.3  108.9  108.5  108.1  107.8  107.5  107.2  106.9
       106.7  106.5  106.3  106.1  106.0  105.9  105.8  105.7  105.6  105.5
       105.4  105.4  105.3  105.3  105.3  105.2  105.2  105.2  105.2  105.2
       105.2  105.2  105.2  105.2  105.2  105.2  105.2  105.3  105.3  105.4
       105.4  105.5  105.6  105.7  105.9  106.0  106.2  106.5  106.8  107.1
       107.4  107.6  107.9  108.1  108.3  108.5  108.7  108.9  109.1  109.3
       109.5  109.7  109.9  110.1  110.3  110.5  110.7  110.9  111.1  111.2
       111.4  111.5  111.6  111.7  111.8  111.9  111.9  111.9  112.0  112.0
1
  VOLUMETRIC BUDGET FOR ENTIRE MODEL AT END OF TIME STEP   30, STRESS PERIOD   5
  ------------------------------------------------------------------------------

     CUMULATIVE VOLUMES      L**3       RATES FOR THIS TIME STEP      L**3/T
     ------------------                 ------------------------

           IN:                                      IN:
           ---                                      ---
             STORAGE =      137727.0312               STORAGE =           0.0000
       CONSTANT HEAD =           0.0000         CONSTANT HEAD =           0.0000
     HEAD DEP BOUNDS =     7066143.0000       HEAD DEP BOUNDS =           0.2235
      STREAM LEAKAGE =     2658317.5000        STREAM LEAKAGE =           0.4477

            TOTAL IN =     9862188.0000              TOTAL IN =           0.6711

          OUT:                                     OUT:
          ----                                     ----
             STORAGE =     9788501.0000               STORAGE =           0.6711
       CONSTANT HEAD =           0.0000         CONSTANT HEAD =           0.0000
     HEAD DEP BOUNDS =           0.0000       HEAD DEP BOUNDS =           0.0000
      STREAM LEAKAGE =       73761.2344        STREAM LEAKAGE =           0.0000

           TOTAL OUT =     9862262.0000             TOTAL OUT =           0.6711

            IN - OUT =         -74.0000              IN - OUT =       3.0518E-05

 PERCENT DISCREPANCY =          -0.00     PERCENT DISCREPANCY =           0.00






         TIME SUMMARY AT END OF TIME STEP   30 IN STRESS PERIOD    5
                    SECONDS     MINUTES      HOURS       DAYS        YEARS
                    -----------------------------------------------------------
   TIME STEP LENGTH 2.49961E+05  4166.0      69.434      2.8931     7.92080E-03
 STRESS PERIOD TIME 2.59200E+06  43200.      720.00      30.000     8.21355E-02
         TOTAL TIME 1.29600E+07 2.16000E+05  3600.0      150.00     0.41068    
1
1
                            STRESS PERIOD NO.    6, LENGTH =   2592000.    
                            -----------------------------------------------

                              NUMBER OF TIME STEPS =    30

                               MULTIPLIER FOR DELT =     1.100

                            INITIAL TIME STEP SIZE =   15757.40    

 REUSING NON-PARAMETER GHB CELLS FROM LAST STRESS PERIOD

      7 GHB CELLS



 CLASSIFICATION & COUNT OF STREAM SEGMENTS BASED ON SOURCE OF INFLOW:

                HEADWATER     DIVERSION     RECEIVES TRIBUTARY FLOW
                ---------     ---------     -----------------------
                     1              0               0



                    INPUT DATA FOR EACH STREAM SEGMENT
 ---------------------------------------------------------------------------------------------

 SEGMENT    SEG.     INFLOW   OVERLAND   STREAM    STREAM   ICALC  OUTFLOW  DIVERSION PRIORITY
    NO.    LENGTH     RATE     RUNOFF      ET       PPT.    METH.  TO SEG.  FROM SEG.    NO.

      1  2.000E+04 3.561E+01 0.000E+00 0.000E+00 0.000E+00    2        0        0        0


         STREAMBED PROPERTIES AND STREAM DIMENSIONS

 SEGMENT     BED HYD. COND.      BED THICKNESS     ELEV.-TOP OF BED     WIDTH OF STREAM     DEPTH OF STREAM    STREAM ROUGHNESS
    No.     UPPER     LOWER     UPPER     LOWER     UPPER     LOWER     UPPER     LOWER     UPPER     LOWER   CHANNEL      BANK

     1  3.500E-07 3.500E-07                                                                                 3.000E-02 4.000E-02

  EIGHT POINT CROSS-SECTION DATA FOR SEGMENTS WITH ICALC = 2
    X VALUES X VALUES START FROM LEFT SIDE LOOKING DOWNSTREAM

     SEGMENT NO.        X1        X2        X3        X4        X5        X6        X7        X8
            1      0.000E+00 2.000E+00 4.000E+00 6.000E+00 8.000E+00 1.000E+01 1.200E+01 1.400E+01

    Z VALUES ARE RELATIVE TO STREAMBED ELEVATION

     SEGMENT NO.          Z1        Z2        Z3        Z4        Z5        Z6        Z7        Z8
            1      6.000E+00 4.500E+00 3.500E+00 0.000E+00 3.000E-01 3.500E+00 4.500E+00 6.000E+00




 SOLVING FOR HEAD 

 NO OUTPUT CONTROL FOR STRESS PERIOD    6   TIME STEP    1

 SOLVING FOR HEAD 

 NO OUTPUT CONTROL FOR STRESS PERIOD    6   TIME STEP    2

 SOLVING FOR HEAD 

 NO OUTPUT CONTROL FOR STRESS PERIOD    6   TIME STEP    3

 SOLVING FOR HEAD 

 NO OUTPUT CONTROL FOR STRESS PERIOD    6   TIME STEP    4

 SOLVING FOR HEAD 

 NO OUTPUT CONTROL FOR STRESS PERIOD    6   TIME STEP    5

 SOLVING FOR HEAD 

 NO OUTPUT CONTROL FOR STRESS PERIOD    6   TIME STEP    6

 SOLVING FOR HEAD 

 NO OUTPUT CONTROL FOR STRESS PERIOD    6   TIME STEP    7

 SOLVING FOR HEAD 

 NO OUTPUT CONTROL FOR STRESS PERIOD    6   TIME STEP    8

 SOLVING FOR HEAD 

 NO OUTPUT CONTROL FOR STRESS PERIOD    6   TIME STEP    9

 SOLVING FOR HEAD 

 NO OUTPUT CONTROL FOR STRESS PERIOD    6   TIME STEP   10

 SOLVING FOR HEAD 

 NO OUTPUT CONTROL FOR STRESS PERIOD    6   TIME STEP   11

 SOLVING FOR HEAD 

 NO OUTPUT CONTROL FOR STRESS PERIOD    6   TIME STEP   12

 SOLVING FOR HEAD 

 NO OUTPUT CONTROL FOR STRESS PERIOD    6   TIME STEP   13

 SOLVING FOR HEAD 

 NO OUTPUT CONTROL FOR STRESS PERIOD    6   TIME STEP   14

 SOLVING FOR HEAD 

 NO OUTPUT CONTROL FOR STRESS PERIOD    6   TIME STEP   15

 SOLVING FOR HEAD 

 NO OUTPUT CONTROL FOR STRESS PERIOD    6   TIME STEP   16

 SOLVING FOR HEAD 

 NO OUTPUT CONTROL FOR STRESS PERIOD    6   TIME STEP   17

 SOLVING FOR HEAD 

 NO OUTPUT CONTROL FOR STRESS PERIOD    6   TIME STEP   18

 SOLVING FOR HEAD 

 NO OUTPUT CONTROL FOR STRESS PERIOD    6   TIME STEP   19

 SOLVING FOR HEAD 

 NO OUTPUT CONTROL FOR STRESS PERIOD    6   TIME STEP   20

 SOLVING FOR HEAD 

 NO OUTPUT CONTROL FOR STRESS PERIOD    6   TIME STEP   21

 SOLVING FOR HEAD 

 NO OUTPUT CONTROL FOR STRESS PERIOD    6   TIME STEP   22

 SOLVING FOR HEAD 

 NO OUTPUT CONTROL FOR STRESS PERIOD    6   TIME STEP   23

 SOLVING FOR HEAD 

 NO OUTPUT CONTROL FOR STRESS PERIOD    6   TIME STEP   24

 SOLVING FOR HEAD 

 NO OUTPUT CONTROL FOR STRESS PERIOD    6   TIME STEP   25

 SOLVING FOR HEAD 

 NO OUTPUT CONTROL FOR STRESS PERIOD    6   TIME STEP   26

 SOLVING FOR HEAD 

 NO OUTPUT CONTROL FOR STRESS PERIOD    6   TIME STEP   27

 SOLVING FOR HEAD 

 NO OUTPUT CONTROL FOR STRESS PERIOD    6   TIME STEP   28

 SOLVING FOR HEAD 

 NO OUTPUT CONTROL FOR STRESS PERIOD    6   TIME STEP   29

 SOLVING FOR HEAD 

 NO OUTPUT CONTROL FOR STRESS PERIOD    6   TIME STEP   30



 STREAM LISTING     PERIOD      6   STEP       30

 LAYER ROW COL. STREAM  RCH.   FLOW INTO    STREAM     FLOW OUT OF   OVRLND.    DIRECT     STREAM      STREAM      STREAM     STREAM  STREAMBED   FLOW TO   CHNG. UNSAT. 
                SEG.NO.  NO.   STRM. RCH.    LOSS       STRM. RCH.   RUNOFF     PRECIP       ET         HEAD        DEPTH      WIDTH  CONDCTNC.   WAT. TAB.

   1    4    1     1     1    3.5610E+01  8.9051E-03   3.5601E+01  0.000E+00  0.000E+00  0.000E+00  1.44129E+02  4.279E+00  9.115E+00  1.863E-03  8.593E-03  3.116E-04
   1    4    2     1     2    3.5601E+01  8.9031E-03   3.5592E+01  0.000E+00  0.000E+00  0.000E+00  1.43828E+02  4.278E+00  9.114E+00  1.863E-03  8.491E-03  4.121E-04
   1    4    3     1     3    3.5592E+01  8.9011E-03   3.5583E+01  0.000E+00  0.000E+00  0.000E+00  1.43528E+02  4.278E+00  9.112E+00  1.863E-03  8.376E-03  5.319E-04
   1    4    4     1     4    3.5583E+01  8.8991E-03   3.5574E+01  0.000E+00  0.000E+00  0.000E+00  1.43228E+02  4.278E+00  9.110E+00  1.863E-03  8.397E-03  5.022E-04
   1    4    5     1     5    3.5574E+01  8.8970E-03   3.5565E+01  0.000E+00  0.000E+00  0.000E+00  1.42927E+02  4.277E+00  9.109E+00  1.862E-03  8.417E-03  4.796E-04
   1    4    6     1     6    3.5565E+01  8.8950E-03   3.5557E+01  0.000E+00  0.000E+00  0.000E+00  1.42627E+02  4.277E+00  9.107E+00  1.862E-03  8.438E-03  4.575E-04
   1    4    7     1     7    3.5557E+01  8.8930E-03   3.5548E+01  0.000E+00  0.000E+00  0.000E+00  1.42326E+02  4.276E+00  9.105E+00  1.862E-03  8.457E-03  4.362E-04
   1    4    8     1     8    3.5548E+01  8.8910E-03   3.5539E+01  0.000E+00  0.000E+00  0.000E+00  1.42026E+02  4.276E+00  9.104E+00  1.862E-03  8.475E-03  4.159E-04
   1    4    9     1     9    3.5539E+01  8.8890E-03   3.5530E+01  0.000E+00  0.000E+00  0.000E+00  1.41726E+02  4.276E+00  9.102E+00  1.861E-03  8.492E-03  3.966E-04
   1    4   10     1    10    3.5530E+01  8.8869E-03   3.5521E+01  0.000E+00  0.000E+00  0.000E+00  1.41425E+02  4.275E+00  9.100E+00  1.861E-03  8.508E-03  3.785E-04
   1    4   11     1    11    3.5521E+01  8.8849E-03   3.5512E+01  0.000E+00  0.000E+00  0.000E+00  1.41125E+02  4.275E+00  9.099E+00  1.861E-03  8.523E-03  3.616E-04
   1    4   12     1    12    3.5512E+01  8.8829E-03   3.5503E+01  0.000E+00  0.000E+00  0.000E+00  1.40824E+02  4.274E+00  9.097E+00  1.861E-03  8.537E-03  3.461E-04
   1    4   13     1    13    3.5503E+01  8.8809E-03   3.5494E+01  0.000E+00  0.000E+00  0.000E+00  1.40524E+02  4.274E+00  9.095E+00  1.860E-03  8.549E-03  3.320E-04
   1    4   14     1    14    3.5494E+01  8.8789E-03   3.5486E+01  0.000E+00  0.000E+00  0.000E+00  1.40223E+02  4.273E+00  9.094E+00  1.860E-03  8.560E-03  3.193E-04
   1    4   15     1    15    3.5486E+01  8.8768E-03   3.5477E+01  0.000E+00  0.000E+00  0.000E+00  1.39923E+02  4.273E+00  9.092E+00  1.860E-03  8.569E-03  3.079E-04
   1    4   16     1    16    3.5477E+01  8.8748E-03   3.5468E+01  0.000E+00  0.000E+00  0.000E+00  1.39623E+02  4.273E+00  9.090E+00  1.860E-03  8.577E-03  2.980E-04
   1    4   17     1    17    3.5468E+01  8.8728E-03   3.5459E+01  0.000E+00  0.000E+00  0.000E+00  1.39322E+02  4.272E+00  9.089E+00  1.859E-03  8.583E-03  2.895E-04
   1    4   18     1    18    3.5459E+01  8.8708E-03   3.5450E+01  0.000E+00  0.000E+00  0.000E+00  1.39022E+02  4.272E+00  9.087E+00  1.859E-03  8.589E-03  2.823E-04
   1    4   19     1    19    3.5450E+01  8.8688E-03   3.5441E+01  0.000E+00  0.000E+00  0.000E+00  1.38721E+02  4.271E+00  9.085E+00  1.859E-03  8.592E-03  2.764E-04
   1    4   20     1    20    3.5441E+01  8.8667E-03   3.5432E+01  0.000E+00  0.000E+00  0.000E+00  1.38421E+02  4.271E+00  9.084E+00  1.858E-03  8.595E-03  2.717E-04
   1    4   21     1    21    3.5432E+01  8.8647E-03   3.5423E+01  0.000E+00  0.000E+00  0.000E+00  1.38121E+02  4.271E+00  9.082E+00  1.858E-03  8.596E-03  2.683E-04
   1    4   22     1    22    3.5423E+01  8.8627E-03   3.5415E+01  0.000E+00  0.000E+00  0.000E+00  1.37820E+02  4.270E+00  9.080E+00  1.858E-03  8.597E-03  2.660E-04
   1    4   23     1    23    3.5415E+01  8.8607E-03   3.5406E+01  0.000E+00  0.000E+00  0.000E+00  1.37520E+02  4.270E+00  9.079E+00  1.858E-03  8.596E-03  2.647E-04
   1    4   24     1    24    3.5406E+01  8.8587E-03   3.5397E+01  0.000E+00  0.000E+00  0.000E+00  1.37219E+02  4.269E+00  9.077E+00  1.857E-03  8.594E-03  2.644E-04
   1    4   25     1    25    3.5397E+01  8.8567E-03   3.5388E+01  0.000E+00  0.000E+00  0.000E+00  1.36919E+02  4.269E+00  9.075E+00  1.857E-03  8.592E-03  2.650E-04
   1    4   26     1    26    3.5388E+01  8.8547E-03   3.5379E+01  0.000E+00  0.000E+00  0.000E+00  1.36618E+02  4.268E+00  9.074E+00  1.857E-03  8.588E-03  2.664E-04
   1    4   27     1    27    3.5379E+01  8.8526E-03   3.5370E+01  0.000E+00  0.000E+00  0.000E+00  1.36318E+02  4.268E+00  9.072E+00  1.857E-03  8.584E-03  2.685E-04
   1    4   28     1    28    3.5370E+01  8.8506E-03   3.5361E+01  0.000E+00  0.000E+00  0.000E+00  1.36018E+02  4.268E+00  9.070E+00  1.856E-03  8.579E-03  2.712E-04
   1    4   29     1    29    3.5361E+01  8.8486E-03   3.5353E+01  0.000E+00  0.000E+00  0.000E+00  1.35717E+02  4.267E+00  9.069E+00  1.856E-03  8.574E-03  2.744E-04
   1    4   30     1    30    3.5353E+01  8.8466E-03   3.5344E+01  0.000E+00  0.000E+00  0.000E+00  1.35417E+02  4.267E+00  9.067E+00  1.856E-03  8.569E-03  2.780E-04
   1    4   31     1    31    3.5344E+01  8.8446E-03   3.5335E+01  0.000E+00  0.000E+00  0.000E+00  1.35116E+02  4.266E+00  9.066E+00  1.856E-03  8.563E-03  2.819E-04
   1    4   32     1    32    3.5335E+01  8.8426E-03   3.5326E+01  0.000E+00  0.000E+00  0.000E+00  1.34816E+02  4.266E+00  9.064E+00  1.855E-03  8.557E-03  2.860E-04
   1    4   33     1    33    3.5326E+01  8.8406E-03   3.5317E+01  0.000E+00  0.000E+00  0.000E+00  1.34516E+02  4.266E+00  9.062E+00  1.855E-03  8.550E-03  2.903E-04
   1    4   34     1    34    3.5317E+01  8.8385E-03   3.5308E+01  0.000E+00  0.000E+00  0.000E+00  1.34215E+02  4.265E+00  9.061E+00  1.855E-03  8.544E-03  2.946E-04
   1    4   35     1    35    3.5308E+01  8.8365E-03   3.5300E+01  0.000E+00  0.000E+00  0.000E+00  1.33915E+02  4.265E+00  9.059E+00  1.855E-03  8.538E-03  2.989E-04
   1    4   36     1    36    3.5300E+01  8.8345E-03   3.5291E+01  0.000E+00  0.000E+00  0.000E+00  1.33614E+02  4.264E+00  9.057E+00  1.854E-03  8.531E-03  3.032E-04
   1    4   37     1    37    3.5291E+01  8.8325E-03   3.5282E+01  0.000E+00  0.000E+00  0.000E+00  1.33314E+02  4.264E+00  9.056E+00  1.854E-03  8.525E-03  3.073E-04
   1    4   38     1    38    3.5282E+01  8.8305E-03   3.5273E+01  0.000E+00  0.000E+00  0.000E+00  1.33013E+02  4.263E+00  9.054E+00  1.854E-03  8.519E-03  3.111E-04
   1    4   39     1    39    3.5273E+01  8.8285E-03   3.5264E+01  0.000E+00  0.000E+00  0.000E+00  1.32713E+02  4.263E+00  9.052E+00  1.854E-03  8.514E-03  3.147E-04
   1    4   40     1    40    3.5264E+01  8.8265E-03   3.5255E+01  0.000E+00  0.000E+00  0.000E+00  1.32413E+02  4.263E+00  9.051E+00  1.853E-03  8.508E-03  3.180E-04
   1    4   41     1    41    3.5255E+01  8.8245E-03   3.5247E+01  0.000E+00  0.000E+00  0.000E+00  1.32112E+02  4.262E+00  9.049E+00  1.853E-03  8.504E-03  3.209E-04
   1    4   42     1    42    3.5247E+01  8.8225E-03   3.5238E+01  0.000E+00  0.000E+00  0.000E+00  1.31812E+02  4.262E+00  9.047E+00  1.853E-03  8.499E-03  3.233E-04
   1    4   43     1    43    3.5238E+01  8.8204E-03   3.5229E+01  0.000E+00  0.000E+00  0.000E+00  1.31511E+02  4.261E+00  9.046E+00  1.852E-03  8.495E-03  3.252E-04
   1    4   44     1    44    3.5229E+01  8.8184E-03   3.5220E+01  0.000E+00  0.000E+00  0.000E+00  1.31211E+02  4.261E+00  9.044E+00  1.852E-03  8.492E-03  3.265E-04
   1    4   45     1    45    3.5220E+01  8.8164E-03   3.5211E+01  0.000E+00  0.000E+00  0.000E+00  1.30911E+02  4.261E+00  9.042E+00  1.852E-03  8.489E-03  3.271E-04
   1    4   46     1    46    3.5211E+01  8.8144E-03   3.5202E+01  0.000E+00  0.000E+00  0.000E+00  1.30610E+02  4.260E+00  9.041E+00  1.852E-03  8.487E-03  3.270E-04
   1    4   47     1    47    3.5202E+01  8.8124E-03   3.5194E+01  0.000E+00  0.000E+00  0.000E+00  1.30310E+02  4.260E+00  9.039E+00  1.851E-03  8.487E-03  3.258E-04
   1    4   48     1    48    3.5194E+01  8.8104E-03   3.5185E+01  0.000E+00  0.000E+00  0.000E+00  1.30009E+02  4.259E+00  9.037E+00  1.851E-03  8.487E-03  3.236E-04
   1    4   49     1    49    3.5185E+01  8.8084E-03   3.5176E+01  0.000E+00  0.000E+00  0.000E+00  1.29709E+02  4.259E+00  9.036E+00  1.851E-03  8.488E-03  3.199E-04
   1    4   50     1    50    3.5176E+01  8.8064E-03   3.5167E+01  0.000E+00  0.000E+00  0.000E+00  1.29408E+02  4.258E+00  9.034E+00  1.851E-03  8.492E-03  3.147E-04
   1    4   51     1    51    3.5167E+01  8.8044E-03   3.5158E+01  0.000E+00  0.000E+00  0.000E+00  1.29108E+02  4.258E+00  9.032E+00  1.850E-03  8.497E-03  3.074E-04
   1    4   52     1    52    3.5158E+01  8.8024E-03   3.5150E+01  0.000E+00  0.000E+00  0.000E+00  1.28808E+02  4.258E+00  9.031E+00  1.850E-03  8.505E-03  2.977E-04
   1    4   53     1    53    3.5150E+01  8.8004E-03   3.5141E+01  0.000E+00  0.000E+00  0.000E+00  1.28507E+02  4.257E+00  9.029E+00  1.850E-03  8.515E-03  2.851E-04
   1    4   54     1    54    3.5141E+01  8.7984E-03   3.5132E+01  0.000E+00  0.000E+00  0.000E+00  1.28207E+02  4.257E+00  9.027E+00  1.850E-03  8.529E-03  2.690E-04
   1    4   55     1    55    3.5132E+01  8.7964E-03   3.5123E+01  0.000E+00  0.000E+00  0.000E+00  1.27906E+02  4.256E+00  9.026E+00  1.849E-03  8.548E-03  2.488E-04
   1    4   56     1    56    3.5123E+01  8.7944E-03   3.5114E+01  0.000E+00  0.000E+00  0.000E+00  1.27606E+02  4.256E+00  9.024E+00  1.849E-03  8.570E-03  2.240E-04
   1    4   57     1    57    3.5114E+01  8.7924E-03   3.5106E+01  0.000E+00  0.000E+00  0.000E+00  1.27306E+02  4.256E+00  9.022E+00  1.849E-03  8.598E-03  1.940E-04
   1    4   58     1    58    3.5106E+01  8.7904E-03   3.5097E+01  0.000E+00  0.000E+00  0.000E+00  1.27005E+02  4.255E+00  9.021E+00  1.849E-03  8.632E-03  1.586E-04
   1    4   59     1    59    3.5097E+01  8.7883E-03   3.5088E+01  0.000E+00  0.000E+00  0.000E+00  1.26705E+02  4.255E+00  9.019E+00  1.848E-03  8.670E-03  1.182E-04
   1    4   60     1    60    3.5088E+01  8.7863E-03   3.5079E+01  0.000E+00  0.000E+00  0.000E+00  1.26404E+02  4.254E+00  9.017E+00  1.848E-03  8.712E-03  7.443E-05
   1    4   61     1    61    3.5079E+01  8.7843E-03   3.5070E+01  0.000E+00  0.000E+00  0.000E+00  1.26104E+02  4.254E+00  9.016E+00  1.848E-03  8.753E-03  3.116E-05
   1    4   62     1    62    3.5070E+01  8.7823E-03   3.5062E+01  0.000E+00  0.000E+00  0.000E+00  1.25803E+02  4.253E+00  9.014E+00  1.848E-03  8.911E-03 -1.287E-04
   1    4   63     1    63    3.5062E+01  8.7803E-03   3.5053E+01  0.000E+00  0.000E+00  0.000E+00  1.25503E+02  4.253E+00  9.012E+00  1.847E-03  9.186E-03 -4.053E-04
   1    4   64     1    64    3.5053E+01  8.7783E-03   3.5044E+01  0.000E+00  0.000E+00  0.000E+00  1.25203E+02  4.253E+00  9.011E+00  1.847E-03  9.287E-03 -5.082E-04
   1    4   65     1    65    3.5044E+01  8.7763E-03   3.5035E+01  0.000E+00  0.000E+00  0.000E+00  1.24902E+02  4.252E+00  9.009E+00  1.847E-03  8.939E-03 -1.623E-04
   1    4   66     1    66    3.5035E+01  8.7743E-03   3.5027E+01  0.000E+00  0.000E+00  0.000E+00  1.24602E+02  4.252E+00  9.007E+00  1.847E-03  8.370E-03  4.044E-04
   1    4   67     1    67    3.5027E+01  8.7723E-03   3.5018E+01  0.000E+00  0.000E+00  0.000E+00  1.24301E+02  4.251E+00  9.006E+00  1.846E-03  7.821E-03  9.514E-04
   1    4   68     1    68    3.5018E+01  8.7703E-03   3.5009E+01  0.000E+00  0.000E+00  0.000E+00  1.24001E+02  4.251E+00  9.004E+00  1.846E-03  7.305E-03  1.465E-03
   1    4   69     1    69    3.5009E+01  8.7683E-03   3.5000E+01  0.000E+00  0.000E+00  0.000E+00  1.23701E+02  4.251E+00  9.002E+00  1.846E-03  6.832E-03  1.937E-03
   1    4   70     1    70    3.5000E+01  8.7663E-03   3.4992E+01  0.000E+00  0.000E+00  0.000E+00  1.23400E+02  4.250E+00  9.001E+00  1.845E-03  6.406E-03  2.361E-03
   1    4   71     1    71    3.4992E+01  8.7643E-03   3.4983E+01  0.000E+00  0.000E+00  0.000E+00  1.23100E+02  4.250E+00  8.999E+00  1.845E-03  6.058E-03  2.707E-03
   1    4   72     1    72    3.4983E+01  8.7623E-03   3.4974E+01  0.000E+00  0.000E+00  0.000E+00  1.22799E+02  4.249E+00  8.997E+00  1.845E-03  5.807E-03  2.955E-03
   1    4   73     1    73    3.4974E+01  8.7603E-03   3.4965E+01  0.000E+00  0.000E+00  0.000E+00  1.22499E+02  4.249E+00  8.996E+00  1.845E-03  5.611E-03  3.149E-03
   1    4   74     1    74    3.4965E+01  8.7583E-03   3.4956E+01  0.000E+00  0.000E+00  0.000E+00  1.22199E+02  4.249E+00  8.994E+00  1.844E-03  5.471E-03  3.287E-03
   1    4   75     1    75    3.4956E+01  8.7563E-03   3.4948E+01  0.000E+00  0.000E+00  0.000E+00  1.21898E+02  4.248E+00  8.992E+00  1.844E-03  5.390E-03  3.366E-03
   1    4   76     1    76    3.4948E+01  8.7543E-03   3.4939E+01  0.000E+00  0.000E+00  0.000E+00  1.21598E+02  4.248E+00  8.991E+00  1.844E-03  5.369E-03  3.385E-03
   1    4   77     1    77    3.4939E+01  8.7523E-03   3.4930E+01  0.000E+00  0.000E+00  0.000E+00  1.21297E+02  4.247E+00  8.989E+00  1.844E-03  5.410E-03  3.343E-03
   1    4   78     1    78    3.4930E+01  8.7503E-03   3.4921E+01  0.000E+00  0.000E+00  0.000E+00  1.20997E+02  4.247E+00  8.987E+00  1.843E-03  6.312E-03  2.438E-03
   1    4   79     1    79    3.4921E+01  8.7483E-03   3.4913E+01  0.000E+00  0.000E+00  0.000E+00  1.20696E+02  4.246E+00  8.986E+00  1.843E-03  7.233E-03  1.516E-03
   1    4   80     1    80    3.4913E+01  8.7463E-03   3.4904E+01  0.000E+00  0.000E+00  0.000E+00  1.20396E+02  4.246E+00  8.984E+00  1.843E-03  8.167E-03  5.793E-04
   1    4   81     1    81    3.4904E+01  8.3940E-03   3.4896E+01  0.000E+00  0.000E+00  0.000E+00  1.20096E+02  4.246E+00  8.982E+00  1.843E-03  0.000E+00  0.000E+00
   1    4   82     1    82    3.4896E+01  7.5531E-03   3.4888E+01  0.000E+00  0.000E+00  0.000E+00  1.19795E+02  4.245E+00  8.981E+00  1.842E-03  0.000E+00  0.000E+00
   1    4   83     1    83    3.4888E+01  6.7675E-03   3.4881E+01  0.000E+00  0.000E+00  0.000E+00  1.19495E+02  4.245E+00  8.980E+00  1.842E-03  0.000E+00  0.000E+00
   1    4   84     1    84    3.4881E+01  6.0319E-03   3.4875E+01  0.000E+00  0.000E+00  0.000E+00  1.19195E+02  4.245E+00  8.978E+00  1.842E-03  0.000E+00  0.000E+00
   1    4   85     1    85    3.4875E+01  5.3410E-03   3.4870E+01  0.000E+00  0.000E+00  0.000E+00  1.18894E+02  4.244E+00  8.977E+00  1.842E-03  0.000E+00  0.000E+00
   1    4   86     1    86    3.4870E+01  4.6888E-03   3.4865E+01  0.000E+00  0.000E+00  0.000E+00  1.18594E+02  4.244E+00  8.976E+00  1.842E-03  0.000E+00  0.000E+00
   1    4   87     1    87    3.4865E+01  4.0712E-03   3.4861E+01  0.000E+00  0.000E+00  0.000E+00  1.18294E+02  4.244E+00  8.976E+00  1.842E-03  0.000E+00  0.000E+00
   1    4   88     1    88    3.4861E+01  3.4840E-03   3.4858E+01  0.000E+00  0.000E+00  0.000E+00  1.17994E+02  4.244E+00  8.975E+00  1.841E-03  0.000E+00  0.000E+00
   1    4   89     1    89    3.4858E+01  2.9227E-03   3.4855E+01  0.000E+00  0.000E+00  0.000E+00  1.17694E+02  4.244E+00  8.974E+00  1.841E-03  0.000E+00  0.000E+00
   1    4   90     1    90    3.4855E+01  2.3832E-03   3.4852E+01  0.000E+00  0.000E+00  0.000E+00  1.17393E+02  4.243E+00  8.974E+00  1.841E-03  0.000E+00  0.000E+00
   1    4   91     1    91    3.4852E+01  1.8618E-03   3.4850E+01  0.000E+00  0.000E+00  0.000E+00  1.17093E+02  4.243E+00  8.973E+00  1.841E-03  0.000E+00  0.000E+00
   1    4   92     1    92    3.4850E+01  1.3544E-03   3.4849E+01  0.000E+00  0.000E+00  0.000E+00  1.16793E+02  4.243E+00  8.973E+00  1.841E-03  0.000E+00  0.000E+00
   1    4   93     1    93    3.4849E+01  8.5716E-04   3.4848E+01  0.000E+00  0.000E+00  0.000E+00  1.16493E+02  4.243E+00  8.973E+00  1.841E-03  0.000E+00  0.000E+00
   1    4   94     1    94    3.4848E+01  3.6670E-04   3.4848E+01  0.000E+00  0.000E+00  0.000E+00  1.16193E+02  4.243E+00  8.973E+00  1.841E-03  0.000E+00  0.000E+00
   1    4   95     1    95    3.4848E+01 -1.2059E-04   3.4848E+01  0.000E+00  0.000E+00  0.000E+00  1.15893E+02  4.243E+00  8.973E+00  1.841E-03  0.000E+00  0.000E+00
   1    4   96     1    96    3.4848E+01 -6.0877E-04   3.4849E+01  0.000E+00  0.000E+00  0.000E+00  1.15593E+02  4.243E+00  8.973E+00  1.841E-03  0.000E+00  0.000E+00
   1    4   97     1    97    3.4849E+01 -1.1015E-03   3.4850E+01  0.000E+00  0.000E+00  0.000E+00  1.15293E+02  4.243E+00  8.973E+00  1.841E-03  0.000E+00  0.000E+00
   1    4   98     1    98    3.4850E+01 -1.6022E-03   3.4851E+01  0.000E+00  0.000E+00  0.000E+00  1.14993E+02  4.243E+00  8.973E+00  1.841E-03  0.000E+00  0.000E+00
   1    4   99     1    99    3.4851E+01 -2.1150E-03   3.4853E+01  0.000E+00  0.000E+00  0.000E+00  1.14693E+02  4.243E+00  8.973E+00  1.841E-03  0.000E+00  0.000E+00
   1    4  100     1   100    3.4853E+01 -2.6443E-03   3.4856E+01  0.000E+00  0.000E+00  0.000E+00  1.14393E+02  4.243E+00  8.974E+00  1.841E-03  0.000E+00  0.000E+00



1
  VOLUMETRIC BUDGET FOR UNSATURATED ZONE BENEATH STREAMS AT END OF TIME STEP    30 STRESS PERIOD   6
  ------------------------------------------------------------------------------------------------

    CUMULATIVE VOLUMES             L**3    RATES FOR THIS TIME STEP         L**3/T
    ------------------                     ------------------------


          STREAM LOSS =      5011159.5000            STREAM LOSS =            0.7060
    CHANGE IN STORAGE =       622701.3750      CHANGE IN STORAGE =        5.1181E-02
       RECHARGE TO GW =      4390889.0000         RECHARGE TO GW =            0.6549

             TOTAL IN =      5011159.5000               TOTAL IN =            0.7060

            TOTAL OUT =      5013590.5000              TOTAL OUT =            0.7061

             IN - OUT =        -2431.0000               IN - OUT =       -7.0333E-06

  PERCENT DISCREPANCY =           -0.01      PERCENT DISCREPANCY =            -0.00



1
  VOLUMETRIC BUDGET FOR ENTIRE MODEL AT END OF TIME STEP   30, STRESS PERIOD   6
  ------------------------------------------------------------------------------

     CUMULATIVE VOLUMES      L**3       RATES FOR THIS TIME STEP      L**3/T
     ------------------                 ------------------------

           IN:                                      IN:
           ---                                      ---
             STORAGE =      165008.8594               STORAGE =           0.0000
       CONSTANT HEAD =           0.0000         CONSTANT HEAD =           0.0000
     HEAD DEP BOUNDS =     7562537.0000       HEAD DEP BOUNDS =           0.1688
      STREAM LEAKAGE =     4556132.5000        STREAM LEAKAGE =           0.7109

            TOTAL IN =    12283678.0000              TOTAL IN =           0.8798

          OUT:                                     OUT:
          ----                                     ----
             STORAGE =    12166204.0000               STORAGE =           0.8714
       CONSTANT HEAD =           0.0000         CONSTANT HEAD =           0.0000
     HEAD DEP BOUNDS =           0.0000       HEAD DEP BOUNDS =           0.0000
      STREAM LEAKAGE =      117642.9609        STREAM LEAKAGE =       8.1924E-03

           TOTAL OUT =    12283847.0000             TOTAL OUT =           0.8796

            IN - OUT =        -169.0000              IN - OUT =       2.2483E-04

 PERCENT DISCREPANCY =          -0.00     PERCENT DISCREPANCY =           0.03






         TIME SUMMARY AT END OF TIME STEP   30 IN STRESS PERIOD    6
                    SECONDS     MINUTES      HOURS       DAYS        YEARS
                    -----------------------------------------------------------
   TIME STEP LENGTH 2.49961E+05  4166.0      69.434      2.8931     7.92080E-03
 STRESS PERIOD TIME 2.59200E+06  43200.      720.00      30.000     8.21355E-02
         TOTAL TIME 1.55520E+07 2.59200E+05  4320.0      180.00     0.49281    
1
1
                            STRESS PERIOD NO.    7, LENGTH =   2592000.    
                            -----------------------------------------------

                              NUMBER OF TIME STEPS =    30

                               MULTIPLIER FOR DELT =     1.100

                            INITIAL TIME STEP SIZE =   15757.40    

 REUSING NON-PARAMETER GHB CELLS FROM LAST STRESS PERIOD

      7 GHB CELLS



 CLASSIFICATION & COUNT OF STREAM SEGMENTS BASED ON SOURCE OF INFLOW:

                HEADWATER     DIVERSION     RECEIVES TRIBUTARY FLOW
                ---------     ---------     -----------------------
                     1              0               0



                    INPUT DATA FOR EACH STREAM SEGMENT
 ---------------------------------------------------------------------------------------------

 SEGMENT    SEG.     INFLOW   OVERLAND   STREAM    STREAM   ICALC  OUTFLOW  DIVERSION PRIORITY
    NO.    LENGTH     RATE     RUNOFF      ET       PPT.    METH.  TO SEG.  FROM SEG.    NO.

      1  2.000E+04 4.407E+01 0.000E+00 0.000E+00 0.000E+00    2        0        0        0


         STREAMBED PROPERTIES AND STREAM DIMENSIONS

 SEGMENT     BED HYD. COND.      BED THICKNESS     ELEV.-TOP OF BED     WIDTH OF STREAM     DEPTH OF STREAM    STREAM ROUGHNESS
    No.     UPPER     LOWER     UPPER     LOWER     UPPER     LOWER     UPPER     LOWER     UPPER     LOWER   CHANNEL      BANK

     1  3.500E-07 3.500E-07                                                                                 3.000E-02 4.000E-02

  EIGHT POINT CROSS-SECTION DATA FOR SEGMENTS WITH ICALC = 2
    X VALUES X VALUES START FROM LEFT SIDE LOOKING DOWNSTREAM

     SEGMENT NO.        X1        X2        X3        X4        X5        X6        X7        X8
            1      0.000E+00 2.000E+00 4.000E+00 6.000E+00 8.000E+00 1.000E+01 1.200E+01 1.400E+01

    Z VALUES ARE RELATIVE TO STREAMBED ELEVATION

     SEGMENT NO.          Z1        Z2        Z3        Z4        Z5        Z6        Z7        Z8
            1      6.000E+00 4.500E+00 3.500E+00 0.000E+00 3.000E-01 3.500E+00 4.500E+00 6.000E+00




 SOLVING FOR HEAD 

 NO OUTPUT CONTROL FOR STRESS PERIOD    7   TIME STEP    1

 SOLVING FOR HEAD 

 NO OUTPUT CONTROL FOR STRESS PERIOD    7   TIME STEP    2

 SOLVING FOR HEAD 

 NO OUTPUT CONTROL FOR STRESS PERIOD    7   TIME STEP    3

 SOLVING FOR HEAD 

 NO OUTPUT CONTROL FOR STRESS PERIOD    7   TIME STEP    4

 SOLVING FOR HEAD 

 NO OUTPUT CONTROL FOR STRESS PERIOD    7   TIME STEP    5

 SOLVING FOR HEAD 

 NO OUTPUT CONTROL FOR STRESS PERIOD    7   TIME STEP    6

 SOLVING FOR HEAD 

 NO OUTPUT CONTROL FOR STRESS PERIOD    7   TIME STEP    7

 SOLVING FOR HEAD 

 NO OUTPUT CONTROL FOR STRESS PERIOD    7   TIME STEP    8

 SOLVING FOR HEAD 

 NO OUTPUT CONTROL FOR STRESS PERIOD    7   TIME STEP    9

 SOLVING FOR HEAD 

 NO OUTPUT CONTROL FOR STRESS PERIOD    7   TIME STEP   10

 SOLVING FOR HEAD 

 NO OUTPUT CONTROL FOR STRESS PERIOD    7   TIME STEP   11

 SOLVING FOR HEAD 

 NO OUTPUT CONTROL FOR STRESS PERIOD    7   TIME STEP   12

 SOLVING FOR HEAD 

 NO OUTPUT CONTROL FOR STRESS PERIOD    7   TIME STEP   13

 SOLVING FOR HEAD 

 NO OUTPUT CONTROL FOR STRESS PERIOD    7   TIME STEP   14

 SOLVING FOR HEAD 

 NO OUTPUT CONTROL FOR STRESS PERIOD    7   TIME STEP   15

 SOLVING FOR HEAD 

 NO OUTPUT CONTROL FOR STRESS PERIOD    7   TIME STEP   16

 SOLVING FOR HEAD 

 NO OUTPUT CONTROL FOR STRESS PERIOD    7   TIME STEP   17

 SOLVING FOR HEAD 

 NO OUTPUT CONTROL FOR STRESS PERIOD    7   TIME STEP   18

 SOLVING FOR HEAD 

 NO OUTPUT CONTROL FOR STRESS PERIOD    7   TIME STEP   19

 SOLVING FOR HEAD 

 NO OUTPUT CONTROL FOR STRESS PERIOD    7   TIME STEP   20

 SOLVING FOR HEAD 

 NO OUTPUT CONTROL FOR STRESS PERIOD    7   TIME STEP   21

 SOLVING FOR HEAD 

 NO OUTPUT CONTROL FOR STRESS PERIOD    7   TIME STEP   22

 SOLVING FOR HEAD 

 NO OUTPUT CONTROL FOR STRESS PERIOD    7   TIME STEP   23

 SOLVING FOR HEAD 

 NO OUTPUT CONTROL FOR STRESS PERIOD    7   TIME STEP   24

 SOLVING FOR HEAD 

 NO OUTPUT CONTROL FOR STRESS PERIOD    7   TIME STEP   25

 SOLVING FOR HEAD 

 NO OUTPUT CONTROL FOR STRESS PERIOD    7   TIME STEP   26

 SOLVING FOR HEAD 

 NO OUTPUT CONTROL FOR STRESS PERIOD    7   TIME STEP   27

 SOLVING FOR HEAD 

 NO OUTPUT CONTROL FOR STRESS PERIOD    7   TIME STEP   28

 SOLVING FOR HEAD 

 NO OUTPUT CONTROL FOR STRESS PERIOD    7   TIME STEP   29

 SOLVING FOR HEAD 

 NO OUTPUT CONTROL FOR STRESS PERIOD    7   TIME STEP   30



 STREAM LISTING     PERIOD      7   STEP       30

 LAYER ROW COL. STREAM  RCH.   FLOW INTO    STREAM     FLOW OUT OF   OVRLND.    DIRECT     STREAM      STREAM      STREAM     STREAM  STREAMBED   FLOW TO   CHNG. UNSAT. 
                SEG.NO.  NO.   STRM. RCH.    LOSS       STRM. RCH.   RUNOFF     PRECIP       ET         HEAD        DEPTH      WIDTH  CONDCTNC.   WAT. TAB.

   1    4    1     1     1    4.4070E+01  1.0651E-02   4.4059E+01  0.000E+00  0.000E+00  0.000E+00  1.44496E+02  4.646E+00  1.039E+01  2.070E-03  0.000E+00  0.000E+00
   1    4    2     1     2    4.4059E+01  1.0649E-02   4.4049E+01  0.000E+00  0.000E+00  0.000E+00  1.44195E+02  4.645E+00  1.039E+01  2.070E-03  1.068E-02 -2.933E-05
   1    4    3     1     3    4.4049E+01  1.0647E-02   4.4038E+01  0.000E+00  0.000E+00  0.000E+00  1.43895E+02  4.645E+00  1.039E+01  2.069E-03  1.071E-02 -5.848E-05
   1    4    4     1     4    4.4038E+01  1.0645E-02   4.4027E+01  0.000E+00  0.000E+00  0.000E+00  1.43594E+02  4.644E+00  1.038E+01  2.069E-03  1.073E-02 -8.786E-05
   1    4    5     1     5    4.4027E+01  1.0643E-02   4.4017E+01  0.000E+00  0.000E+00  0.000E+00  1.43294E+02  4.644E+00  1.038E+01  2.069E-03  1.076E-02 -1.164E-04
   1    4    6     1     6    4.4017E+01  1.0641E-02   4.4006E+01  0.000E+00  0.000E+00  0.000E+00  1.42993E+02  4.643E+00  1.038E+01  2.069E-03  1.078E-02 -1.438E-04
   1    4    7     1     7    4.4006E+01  1.0639E-02   4.3995E+01  0.000E+00  0.000E+00  0.000E+00  1.42693E+02  4.643E+00  1.038E+01  2.069E-03  1.081E-02 -1.700E-04
   1    4    8     1     8    4.3995E+01  1.0637E-02   4.3985E+01  0.000E+00  0.000E+00  0.000E+00  1.42393E+02  4.643E+00  1.038E+01  2.068E-03  1.083E-02 -1.951E-04
   1    4    9     1     9    4.3985E+01  1.0635E-02   4.3974E+01  0.000E+00  0.000E+00  0.000E+00  1.42092E+02  4.642E+00  1.038E+01  2.068E-03  1.085E-02 -2.188E-04
   1    4   10     1    10    4.3974E+01  1.0633E-02   4.3964E+01  0.000E+00  0.000E+00  0.000E+00  1.41792E+02  4.642E+00  1.038E+01  2.068E-03  1.087E-02 -2.413E-04
   1    4   11     1    11    4.3964E+01  1.0631E-02   4.3953E+01  0.000E+00  0.000E+00  0.000E+00  1.41491E+02  4.641E+00  1.038E+01  2.068E-03  1.089E-02 -2.624E-04
   1    4   12     1    12    4.3953E+01  1.0630E-02   4.3942E+01  0.000E+00  0.000E+00  0.000E+00  1.41191E+02  4.641E+00  1.038E+01  2.068E-03  1.091E-02 -2.820E-04
   1    4   13     1    13    4.3942E+01  1.0628E-02   4.3932E+01  0.000E+00  0.000E+00  0.000E+00  1.40890E+02  4.640E+00  1.037E+01  2.067E-03  1.093E-02 -3.001E-04
   1    4   14     1    14    4.3932E+01  1.0626E-02   4.3921E+01  0.000E+00  0.000E+00  0.000E+00  1.40590E+02  4.640E+00  1.037E+01  2.067E-03  1.094E-02 -3.167E-04
   1    4   15     1    15    4.3921E+01  1.0624E-02   4.3910E+01  0.000E+00  0.000E+00  0.000E+00  1.40290E+02  4.640E+00  1.037E+01  2.067E-03  1.096E-02 -3.317E-04
   1    4   16     1    16    4.3910E+01  1.0622E-02   4.3900E+01  0.000E+00  0.000E+00  0.000E+00  1.39989E+02  4.639E+00  1.037E+01  2.067E-03  1.097E-02 -3.452E-04
   1    4   17     1    17    4.3900E+01  1.0620E-02   4.3889E+01  0.000E+00  0.000E+00  0.000E+00  1.39689E+02  4.639E+00  1.037E+01  2.067E-03  1.098E-02 -3.570E-04
   1    4   18     1    18    4.3889E+01  1.0618E-02   4.3879E+01  0.000E+00  0.000E+00  0.000E+00  1.39388E+02  4.638E+00  1.037E+01  2.066E-03  1.099E-02 -3.673E-04
   1    4   19     1    19    4.3879E+01  1.0616E-02   4.3868E+01  0.000E+00  0.000E+00  0.000E+00  1.39088E+02  4.638E+00  1.037E+01  2.066E-03  1.099E-02 -3.761E-04
   1    4   20     1    20    4.3868E+01  1.0614E-02   4.3857E+01  0.000E+00  0.000E+00  0.000E+00  1.38787E+02  4.637E+00  1.037E+01  2.066E-03  1.100E-02 -3.834E-04
   1    4   21     1    21    4.3857E+01  1.0612E-02   4.3847E+01  0.000E+00  0.000E+00  0.000E+00  1.38487E+02  4.637E+00  1.037E+01  2.066E-03  1.100E-02 -3.893E-04
   1    4   22     1    22    4.3847E+01  1.0610E-02   4.3836E+01  0.000E+00  0.000E+00  0.000E+00  1.38187E+02  4.637E+00  1.036E+01  2.066E-03  1.100E-02 -3.938E-04
   1    4   23     1    23    4.3836E+01  1.0608E-02   4.3826E+01  0.000E+00  0.000E+00  0.000E+00  1.37886E+02  4.636E+00  1.036E+01  2.065E-03  1.101E-02 -3.970E-04
   1    4   24     1    24    4.3826E+01  1.0607E-02   4.3815E+01  0.000E+00  0.000E+00  0.000E+00  1.37586E+02  4.636E+00  1.036E+01  2.065E-03  1.101E-02 -3.990E-04
   1    4   25     1    25    4.3815E+01  1.0605E-02   4.3804E+01  0.000E+00  0.000E+00  0.000E+00  1.37285E+02  4.635E+00  1.036E+01  2.065E-03  1.100E-02 -3.998E-04
   1    4   26     1    26    4.3804E+01  1.0603E-02   4.3794E+01  0.000E+00  0.000E+00  0.000E+00  1.36985E+02  4.635E+00  1.036E+01  2.065E-03  1.100E-02 -3.996E-04
   1    4   27     1    27    4.3794E+01  1.0601E-02   4.3783E+01  0.000E+00  0.000E+00  0.000E+00  1.36684E+02  4.634E+00  1.036E+01  2.065E-03  1.100E-02 -3.985E-04
   1    4   28     1    28    4.3783E+01  1.0599E-02   4.3773E+01  0.000E+00  0.000E+00  0.000E+00  1.36384E+02  4.634E+00  1.036E+01  2.064E-03  1.100E-02 -3.965E-04
   1    4   29     1    29    4.3773E+01  1.0597E-02   4.3762E+01  0.000E+00  0.000E+00  0.000E+00  1.36084E+02  4.634E+00  1.036E+01  2.064E-03  1.099E-02 -3.938E-04
   1    4   30     1    30    4.3762E+01  1.0595E-02   4.3751E+01  0.000E+00  0.000E+00  0.000E+00  1.35783E+02  4.633E+00  1.036E+01  2.064E-03  1.099E-02 -3.905E-04
   1    4   31     1    31    4.3751E+01  1.0593E-02   4.3741E+01  0.000E+00  0.000E+00  0.000E+00  1.35483E+02  4.633E+00  1.035E+01  2.064E-03  1.098E-02 -3.867E-04
   1    4   32     1    32    4.3741E+01  1.0591E-02   4.3730E+01  0.000E+00  0.000E+00  0.000E+00  1.35182E+02  4.632E+00  1.035E+01  2.064E-03  1.097E-02 -3.826E-04
   1    4   33     1    33    4.3730E+01  1.0589E-02   4.3720E+01  0.000E+00  0.000E+00  0.000E+00  1.34882E+02  4.632E+00  1.035E+01  2.063E-03  1.097E-02 -3.782E-04
   1    4   34     1    34    4.3720E+01  1.0587E-02   4.3709E+01  0.000E+00  0.000E+00  0.000E+00  1.34581E+02  4.631E+00  1.035E+01  2.063E-03  1.096E-02 -3.736E-04
   1    4   35     1    35    4.3709E+01  1.0586E-02   4.3698E+01  0.000E+00  0.000E+00  0.000E+00  1.34281E+02  4.631E+00  1.035E+01  2.063E-03  1.095E-02 -3.692E-04
   1    4   36     1    36    4.3698E+01  1.0584E-02   4.3688E+01  0.000E+00  0.000E+00  0.000E+00  1.33981E+02  4.631E+00  1.035E+01  2.063E-03  1.095E-02 -3.649E-04
   1    4   37     1    37    4.3688E+01  1.0582E-02   4.3677E+01  0.000E+00  0.000E+00  0.000E+00  1.33680E+02  4.630E+00  1.035E+01  2.063E-03  1.094E-02 -3.611E-04
   1    4   38     1    38    4.3677E+01  1.0580E-02   4.3667E+01  0.000E+00  0.000E+00  0.000E+00  1.33380E+02  4.630E+00  1.035E+01  2.062E-03  1.094E-02 -3.577E-04
   1    4   39     1    39    4.3667E+01  1.0578E-02   4.3656E+01  0.000E+00  0.000E+00  0.000E+00  1.33079E+02  4.629E+00  1.034E+01  2.062E-03  1.093E-02 -3.552E-04
   1    4   40     1    40    4.3656E+01  1.0576E-02   4.3645E+01  0.000E+00  0.000E+00  0.000E+00  1.32779E+02  4.629E+00  1.034E+01  2.062E-03  1.093E-02 -3.538E-04
   1    4   41     1    41    4.3645E+01  1.0574E-02   4.3635E+01  0.000E+00  0.000E+00  0.000E+00  1.32478E+02  4.628E+00  1.034E+01  2.062E-03  1.093E-02 -3.537E-04
   1    4   42     1    42    4.3635E+01  1.0572E-02   4.3624E+01  0.000E+00  0.000E+00  0.000E+00  1.32178E+02  4.628E+00  1.034E+01  2.062E-03  1.093E-02 -3.553E-04
   1    4   43     1    43    4.3624E+01  1.0570E-02   4.3614E+01  0.000E+00  0.000E+00  0.000E+00  1.31878E+02  4.628E+00  1.034E+01  2.061E-03  1.093E-02 -3.591E-04
   1    4   44     1    44    4.3614E+01  1.0568E-02   4.3603E+01  0.000E+00  0.000E+00  0.000E+00  1.31577E+02  4.627E+00  1.034E+01  2.061E-03  1.093E-02 -3.657E-04
   1    4   45     1    45    4.3603E+01  1.0566E-02   4.3593E+01  0.000E+00  0.000E+00  0.000E+00  1.31277E+02  4.627E+00  1.034E+01  2.061E-03  1.094E-02 -3.757E-04
   1    4   46     1    46    4.3593E+01  1.0565E-02   4.3582E+01  0.000E+00  0.000E+00  0.000E+00  1.30976E+02  4.626E+00  1.034E+01  2.061E-03  1.095E-02 -3.900E-04
   1    4   47     1    47    4.3582E+01  1.0563E-02   4.3572E+01  0.000E+00  0.000E+00  0.000E+00  1.30676E+02  4.626E+00  1.034E+01  2.061E-03  1.097E-02 -4.097E-04
   1    4   48     1    48    4.3572E+01  1.0561E-02   4.3561E+01  0.000E+00  0.000E+00  0.000E+00  1.30375E+02  4.625E+00  1.033E+01  2.060E-03  1.100E-02 -4.360E-04
   1    4   49     1    49    4.3561E+01  1.0559E-02   4.3550E+01  0.000E+00  0.000E+00  0.000E+00  1.30075E+02  4.625E+00  1.033E+01  2.060E-03  1.103E-02 -4.703E-04
   1    4   50     1    50    4.3550E+01  1.0557E-02   4.3540E+01  0.000E+00  0.000E+00  0.000E+00  1.29775E+02  4.625E+00  1.033E+01  2.060E-03  1.107E-02 -5.142E-04
   1    4   51     1    51    4.3540E+01  1.0555E-02   4.3529E+01  0.000E+00  0.000E+00  0.000E+00  1.29474E+02  4.624E+00  1.033E+01  2.060E-03  1.112E-02 -5.688E-04
   1    4   52     1    52    4.3529E+01  1.0553E-02   4.3519E+01  0.000E+00  0.000E+00  0.000E+00  1.29174E+02  4.624E+00  1.033E+01  2.060E-03  1.119E-02 -6.336E-04
   1    4   53     1    53    4.3519E+01  1.0551E-02   4.3508E+01  0.000E+00  0.000E+00  0.000E+00  1.28873E+02  4.623E+00  1.033E+01  2.059E-03  1.126E-02 -7.045E-04
   1    4   54     1    54    4.3508E+01  1.0549E-02   4.3498E+01  0.000E+00  0.000E+00  0.000E+00  1.28573E+02  4.623E+00  1.033E+01  2.059E-03  1.132E-02 -7.675E-04
   1    4   55     1    55    4.3498E+01  1.0547E-02   4.3487E+01  0.000E+00  0.000E+00  0.000E+00  1.28272E+02  4.622E+00  1.033E+01  2.059E-03  1.133E-02 -7.874E-04
   1    4   56     1    56    4.3487E+01  1.0545E-02   4.3477E+01  0.000E+00  0.000E+00  0.000E+00  1.27972E+02  4.622E+00  1.033E+01  2.059E-03  1.123E-02 -6.821E-04
   1    4   57     1    57    4.3477E+01  1.0544E-02   4.3466E+01  0.000E+00  0.000E+00  0.000E+00  1.27672E+02  4.622E+00  1.032E+01  2.059E-03  1.081E-02 -2.680E-04
   1    4   58     1    58    4.3466E+01  1.0542E-02   4.3455E+01  0.000E+00  0.000E+00  0.000E+00  1.27371E+02  4.621E+00  1.032E+01  2.058E-03  9.678E-03  8.637E-04
   1    4   59     1    59    4.3455E+01  1.0540E-02   4.3445E+01  0.000E+00  0.000E+00  0.000E+00  1.27071E+02  4.621E+00  1.032E+01  2.058E-03  8.495E-03  2.045E-03
   1    4   60     1    60    4.3445E+01  1.0538E-02   4.3434E+01  0.000E+00  0.000E+00  0.000E+00  1.26770E+02  4.620E+00  1.032E+01  2.058E-03  7.370E-03  3.168E-03
   1    4   61     1    61    4.3434E+01  1.0536E-02   4.3424E+01  0.000E+00  0.000E+00  0.000E+00  1.26470E+02  4.620E+00  1.032E+01  2.058E-03  6.326E-03  4.210E-03
   1    4   62     1    62    4.3424E+01  1.0534E-02   4.3413E+01  0.000E+00  0.000E+00  0.000E+00  1.26169E+02  4.619E+00  1.032E+01  2.058E-03  5.378E-03  5.156E-03
   1    4   63     1    63    4.3413E+01  1.0532E-02   4.3403E+01  0.000E+00  0.000E+00  0.000E+00  1.25869E+02  4.619E+00  1.032E+01  2.057E-03  4.547E-03  5.985E-03
   1    4   64     1    64    4.3403E+01  1.0530E-02   4.3392E+01  0.000E+00  0.000E+00  0.000E+00  1.25569E+02  4.619E+00  1.032E+01  2.057E-03  3.851E-03  6.679E-03
   1    4   65     1    65    4.3392E+01  1.0528E-02   4.3382E+01  0.000E+00  0.000E+00  0.000E+00  1.25268E+02  4.618E+00  1.032E+01  2.057E-03  3.415E-03  7.114E-03
   1    4   66     1    66    4.3382E+01  1.0526E-02   4.3371E+01  0.000E+00  0.000E+00  0.000E+00  1.24968E+02  4.618E+00  1.031E+01  2.057E-03  3.113E-03  7.413E-03
   1    4   67     1    67    4.3371E+01  1.0524E-02   4.3361E+01  0.000E+00  0.000E+00  0.000E+00  1.24667E+02  4.617E+00  1.031E+01  2.057E-03  2.933E-03  7.592E-03
   1    4   68     1    68    4.3361E+01  1.0523E-02   4.3350E+01  0.000E+00  0.000E+00  0.000E+00  1.24367E+02  4.617E+00  1.031E+01  2.056E-03  2.877E-03  7.645E-03
   1    4   69     1    69    4.3350E+01  1.0521E-02   4.3340E+01  0.000E+00  0.000E+00  0.000E+00  1.24066E+02  4.616E+00  1.031E+01  2.056E-03  3.843E-03  6.678E-03
   1    4   70     1    70    4.3340E+01  1.0519E-02   4.3329E+01  0.000E+00  0.000E+00  0.000E+00  1.23766E+02  4.616E+00  1.031E+01  2.056E-03  4.977E-03  5.541E-03
   1    4   71     1    71    4.3329E+01  1.0517E-02   4.3319E+01  0.000E+00  0.000E+00  0.000E+00  1.23466E+02  4.616E+00  1.031E+01  2.056E-03  6.366E-03  4.151E-03
   1    4   72     1    72    4.3319E+01  1.0515E-02   4.3308E+01  0.000E+00  0.000E+00  0.000E+00  1.23165E+02  4.615E+00  1.031E+01  2.056E-03  7.700E-03  2.815E-03
   1    4   73     1    73    4.3308E+01  1.0513E-02   4.3298E+01  0.000E+00  0.000E+00  0.000E+00  1.22865E+02  4.615E+00  1.031E+01  2.055E-03  8.967E-03  1.546E-03
   1    4   74     1    74    4.3298E+01  1.0511E-02   4.3287E+01  0.000E+00  0.000E+00  0.000E+00  1.22564E+02  4.614E+00  1.030E+01  2.055E-03  1.016E-02  3.518E-04
   1    4   75     1    75    4.3287E+01  9.8087E-03   4.3277E+01  0.000E+00  0.000E+00  0.000E+00  1.22264E+02  4.614E+00  1.030E+01  2.055E-03  0.000E+00  0.000E+00
   1    4   76     1    76    4.3277E+01  8.8599E-03   4.3268E+01  0.000E+00  0.000E+00  0.000E+00  1.21964E+02  4.614E+00  1.030E+01  2.055E-03  0.000E+00  0.000E+00
   1    4   77     1    77    4.3268E+01  7.9831E-03   4.3260E+01  0.000E+00  0.000E+00  0.000E+00  1.21663E+02  4.613E+00  1.030E+01  2.055E-03  0.000E+00  0.000E+00
   1    4   78     1    78    4.3260E+01  7.1695E-03   4.3253E+01  0.000E+00  0.000E+00  0.000E+00  1.21363E+02  4.613E+00  1.030E+01  2.055E-03  0.000E+00  0.000E+00
   1    4   79     1    79    4.3253E+01  6.4135E-03   4.3247E+01  0.000E+00  0.000E+00  0.000E+00  1.21063E+02  4.613E+00  1.030E+01  2.054E-03  0.000E+00  0.000E+00
   1    4   80     1    80    4.3247E+01  5.7098E-03   4.3241E+01  0.000E+00  0.000E+00  0.000E+00  1.20762E+02  4.612E+00  1.030E+01  2.054E-03  0.000E+00  0.000E+00
   1    4   81     1    81    4.3241E+01  5.0524E-03   4.3236E+01  0.000E+00  0.000E+00  0.000E+00  1.20462E+02  4.612E+00  1.030E+01  2.054E-03  0.000E+00  0.000E+00
   1    4   82     1    82    4.3236E+01  4.4360E-03   4.3232E+01  0.000E+00  0.000E+00  0.000E+00  1.20162E+02  4.612E+00  1.030E+01  2.054E-03  0.000E+00  0.000E+00
   1    4   83     1    83    4.3232E+01  3.8561E-03   4.3228E+01  0.000E+00  0.000E+00  0.000E+00  1.19862E+02  4.612E+00  1.030E+01  2.054E-03  0.000E+00  0.000E+00
   1    4   84     1    84    4.3228E+01  3.3079E-03   4.3224E+01  0.000E+00  0.000E+00  0.000E+00  1.19562E+02  4.612E+00  1.030E+01  2.054E-03  0.000E+00  0.000E+00
   1    4   85     1    85    4.3224E+01  2.7869E-03   4.3222E+01  0.000E+00  0.000E+00  0.000E+00  1.19261E+02  4.611E+00  1.030E+01  2.054E-03  0.000E+00  0.000E+00
   1    4   86     1    86    4.3222E+01  2.2891E-03   4.3219E+01  0.000E+00  0.000E+00  0.000E+00  1.18961E+02  4.611E+00  1.030E+01  2.054E-03  0.000E+00  0.000E+00
   1    4   87     1    87    4.3219E+01  1.8111E-03   4.3218E+01  0.000E+00  0.000E+00  0.000E+00  1.18661E+02  4.611E+00  1.030E+01  2.054E-03  0.000E+00  0.000E+00
   1    4   88     1    88    4.3218E+01  1.3480E-03   4.3216E+01  0.000E+00  0.000E+00  0.000E+00  1.18361E+02  4.611E+00  1.030E+01  2.054E-03  0.000E+00  0.000E+00
   1    4   89     1    89    4.3216E+01  8.9616E-04   4.3215E+01  0.000E+00  0.000E+00  0.000E+00  1.18061E+02  4.611E+00  1.030E+01  2.054E-03  0.000E+00  0.000E+00
   1    4   90     1    90    4.3215E+01  4.5256E-04   4.3215E+01  0.000E+00  0.000E+00  0.000E+00  1.17761E+02  4.611E+00  1.030E+01  2.054E-03  0.000E+00  0.000E+00
   1    4   91     1    91    4.3215E+01  1.3626E-05   4.3215E+01  0.000E+00  0.000E+00  0.000E+00  1.17461E+02  4.611E+00  1.030E+01  2.054E-03  0.000E+00  0.000E+00
   1    4   92     1    92    4.3215E+01 -4.2514E-04   4.3215E+01  0.000E+00  0.000E+00  0.000E+00  1.17161E+02  4.611E+00  1.030E+01  2.054E-03  0.000E+00  0.000E+00
   1    4   93     1    93    4.3215E+01 -8.6742E-04   4.3216E+01  0.000E+00  0.000E+00  0.000E+00  1.16861E+02  4.611E+00  1.030E+01  2.054E-03  0.000E+00  0.000E+00
   1    4   94     1    94    4.3216E+01 -1.3160E-03   4.3217E+01  0.000E+00  0.000E+00  0.000E+00  1.16561E+02  4.611E+00  1.030E+01  2.054E-03  0.000E+00  0.000E+00
   1    4   95     1    95    4.3217E+01 -1.7749E-03   4.3219E+01  0.000E+00  0.000E+00  0.000E+00  1.16261E+02  4.611E+00  1.030E+01  2.054E-03  0.000E+00  0.000E+00
   1    4   96     1    96    4.3219E+01 -2.2488E-03   4.3222E+01  0.000E+00  0.000E+00  0.000E+00  1.15961E+02  4.611E+00  1.030E+01  2.054E-03  0.000E+00  0.000E+00
   1    4   97     1    97    4.3222E+01 -2.7415E-03   4.3224E+01  0.000E+00  0.000E+00  0.000E+00  1.15661E+02  4.611E+00  1.030E+01  2.054E-03  0.000E+00  0.000E+00
   1    4   98     1    98    4.3224E+01 -3.2567E-03   4.3228E+01  0.000E+00  0.000E+00  0.000E+00  1.15362E+02  4.612E+00  1.030E+01  2.054E-03  0.000E+00  0.000E+00
   1    4   99     1    99    4.3228E+01 -3.7993E-03   4.3231E+01  0.000E+00  0.000E+00  0.000E+00  1.15062E+02  4.612E+00  1.030E+01  2.054E-03  0.000E+00  0.000E+00
   1    4  100     1   100    4.3231E+01 -4.3746E-03   4.3236E+01  0.000E+00  0.000E+00  0.000E+00  1.14762E+02  4.612E+00  1.030E+01  2.054E-03  0.000E+00  0.000E+00



1
  VOLUMETRIC BUDGET FOR UNSATURATED ZONE BENEATH STREAMS AT END OF TIME STEP    30 STRESS PERIOD   7
  ------------------------------------------------------------------------------------------------

    CUMULATIVE VOLUMES             L**3    RATES FOR THIS TIME STEP         L**3/T
    ------------------                     ------------------------


          STREAM LOSS =      7057770.5000            STREAM LOSS =            0.7830
    CHANGE IN STORAGE =       612631.5000      CHANGE IN STORAGE =        5.8288E-02
       RECHARGE TO GW =      6447630.5000         RECHARGE TO GW =            0.7247

             TOTAL IN =      7057770.5000               TOTAL IN =            0.7830

            TOTAL OUT =      7060262.0000              TOTAL OUT =            0.7830

             IN - OUT =        -2491.5000               IN - OUT =       -1.1921E-07

  PERCENT DISCREPANCY =           -0.01      PERCENT DISCREPANCY =            -0.00



1
  VOLUMETRIC BUDGET FOR ENTIRE MODEL AT END OF TIME STEP   30, STRESS PERIOD   7
  ------------------------------------------------------------------------------

     CUMULATIVE VOLUMES      L**3       RATES FOR THIS TIME STEP      L**3/T
     ------------------                 ------------------------

           IN:                                      IN:
           ---                                      ---
             STORAGE =      194555.5000               STORAGE =           0.0000
       CONSTANT HEAD =           0.0000         CONSTANT HEAD =           0.0000
     HEAD DEP BOUNDS =     7923470.0000       HEAD DEP BOUNDS =           0.1166
      STREAM LEAKAGE =     6782040.5000        STREAM LEAKAGE =           0.7969

            TOTAL IN =    14900066.0000              TOTAL IN =           0.9135

          OUT:                                     OUT:
          ----                                     ----
             STORAGE =    14708166.0000               STORAGE =           0.8927
       CONSTANT HEAD =           0.0000         CONSTANT HEAD =           0.0000
     HEAD DEP BOUNDS =           0.0000       HEAD DEP BOUNDS =           0.0000
      STREAM LEAKAGE =      192105.0000        STREAM LEAKAGE =       2.0804E-02

           TOTAL OUT =    14900271.0000             TOTAL OUT =           0.9135

            IN - OUT =        -205.0000              IN - OUT =      -4.3929E-05

 PERCENT DISCREPANCY =          -0.00     PERCENT DISCREPANCY =          -0.00






         TIME SUMMARY AT END OF TIME STEP   30 IN STRESS PERIOD    7
                    SECONDS     MINUTES      HOURS       DAYS        YEARS
                    -----------------------------------------------------------
   TIME STEP LENGTH 2.49961E+05  4166.0      69.434      2.8931     7.92080E-03
 STRESS PERIOD TIME 2.59200E+06  43200.      720.00      30.000     8.21355E-02
         TOTAL TIME 1.81440E+07 3.02400E+05  5040.0      210.00     0.57495    
1
1
                            STRESS PERIOD NO.    8, LENGTH =   2592000.    
                            -----------------------------------------------

                              NUMBER OF TIME STEPS =    30

                               MULTIPLIER FOR DELT =     1.100

                            INITIAL TIME STEP SIZE =   15757.40    

 REUSING NON-PARAMETER GHB CELLS FROM LAST STRESS PERIOD

      7 GHB CELLS



 CLASSIFICATION & COUNT OF STREAM SEGMENTS BASED ON SOURCE OF INFLOW:

                HEADWATER     DIVERSION     RECEIVES TRIBUTARY FLOW
                ---------     ---------     -----------------------
                     1              0               0



                    INPUT DATA FOR EACH STREAM SEGMENT
 ---------------------------------------------------------------------------------------------

 SEGMENT    SEG.     INFLOW   OVERLAND   STREAM    STREAM   ICALC  OUTFLOW  DIVERSION PRIORITY
    NO.    LENGTH     RATE     RUNOFF      ET       PPT.    METH.  TO SEG.  FROM SEG.    NO.

      1  2.000E+04 3.391E+01 0.000E+00 0.000E+00 0.000E+00    2        0        0        0


         STREAMBED PROPERTIES AND STREAM DIMENSIONS

 SEGMENT     BED HYD. COND.      BED THICKNESS     ELEV.-TOP OF BED     WIDTH OF STREAM     DEPTH OF STREAM    STREAM ROUGHNESS
    No.     UPPER     LOWER     UPPER     LOWER     UPPER     LOWER     UPPER     LOWER     UPPER     LOWER   CHANNEL      BANK

     1  3.500E-07 3.500E-07                                                                                 3.000E-02 4.000E-02

  EIGHT POINT CROSS-SECTION DATA FOR SEGMENTS WITH ICALC = 2
    X VALUES X VALUES START FROM LEFT SIDE LOOKING DOWNSTREAM

     SEGMENT NO.        X1        X2        X3        X4        X5        X6        X7        X8
            1      0.000E+00 2.000E+00 4.000E+00 6.000E+00 8.000E+00 1.000E+01 1.200E+01 1.400E+01

    Z VALUES ARE RELATIVE TO STREAMBED ELEVATION

     SEGMENT NO.          Z1        Z2        Z3        Z4        Z5        Z6        Z7        Z8
            1      6.000E+00 4.500E+00 3.500E+00 0.000E+00 3.000E-01 3.500E+00 4.500E+00 6.000E+00




 SOLVING FOR HEAD 

 NO OUTPUT CONTROL FOR STRESS PERIOD    8   TIME STEP    1

 SOLVING FOR HEAD 

 NO OUTPUT CONTROL FOR STRESS PERIOD    8   TIME STEP    2

 SOLVING FOR HEAD 

 NO OUTPUT CONTROL FOR STRESS PERIOD    8   TIME STEP    3

 SOLVING FOR HEAD 

 NO OUTPUT CONTROL FOR STRESS PERIOD    8   TIME STEP    4

 SOLVING FOR HEAD 

 NO OUTPUT CONTROL FOR STRESS PERIOD    8   TIME STEP    5

 SOLVING FOR HEAD 

 NO OUTPUT CONTROL FOR STRESS PERIOD    8   TIME STEP    6

 SOLVING FOR HEAD 

 NO OUTPUT CONTROL FOR STRESS PERIOD    8   TIME STEP    7

 SOLVING FOR HEAD 

 NO OUTPUT CONTROL FOR STRESS PERIOD    8   TIME STEP    8

 SOLVING FOR HEAD 

 NO OUTPUT CONTROL FOR STRESS PERIOD    8   TIME STEP    9

 SOLVING FOR HEAD 

 NO OUTPUT CONTROL FOR STRESS PERIOD    8   TIME STEP   10

 SOLVING FOR HEAD 

 NO OUTPUT CONTROL FOR STRESS PERIOD    8   TIME STEP   11

 SOLVING FOR HEAD 

 NO OUTPUT CONTROL FOR STRESS PERIOD    8   TIME STEP   12

 SOLVING FOR HEAD 

 NO OUTPUT CONTROL FOR STRESS PERIOD    8   TIME STEP   13

 SOLVING FOR HEAD 

 NO OUTPUT CONTROL FOR STRESS PERIOD    8   TIME STEP   14

 SOLVING FOR HEAD 

 NO OUTPUT CONTROL FOR STRESS PERIOD    8   TIME STEP   15

 SOLVING FOR HEAD 

 NO OUTPUT CONTROL FOR STRESS PERIOD    8   TIME STEP   16

 SOLVING FOR HEAD 

 NO OUTPUT CONTROL FOR STRESS PERIOD    8   TIME STEP   17

 SOLVING FOR HEAD 

 NO OUTPUT CONTROL FOR STRESS PERIOD    8   TIME STEP   18

 SOLVING FOR HEAD 

 NO OUTPUT CONTROL FOR STRESS PERIOD    8   TIME STEP   19

 SOLVING FOR HEAD 

 NO OUTPUT CONTROL FOR STRESS PERIOD    8   TIME STEP   20

 SOLVING FOR HEAD 

 NO OUTPUT CONTROL FOR STRESS PERIOD    8   TIME STEP   21

 SOLVING FOR HEAD 

 NO OUTPUT CONTROL FOR STRESS PERIOD    8   TIME STEP   22

 SOLVING FOR HEAD 

 NO OUTPUT CONTROL FOR STRESS PERIOD    8   TIME STEP   23

 SOLVING FOR HEAD 

 NO OUTPUT CONTROL FOR STRESS PERIOD    8   TIME STEP   24

 SOLVING FOR HEAD 

 NO OUTPUT CONTROL FOR STRESS PERIOD    8   TIME STEP   25

 SOLVING FOR HEAD 

 NO OUTPUT CONTROL FOR STRESS PERIOD    8   TIME STEP   26

 SOLVING FOR HEAD 

 NO OUTPUT CONTROL FOR STRESS PERIOD    8   TIME STEP   27

 SOLVING FOR HEAD 

 NO OUTPUT CONTROL FOR STRESS PERIOD    8   TIME STEP   28

 SOLVING FOR HEAD 

 NO OUTPUT CONTROL FOR STRESS PERIOD    8   TIME STEP   29

 SOLVING FOR HEAD 

 NO OUTPUT CONTROL FOR STRESS PERIOD    8   TIME STEP   30



 STREAM LISTING     PERIOD      8   STEP       30

 LAYER ROW COL. STREAM  RCH.   FLOW INTO    STREAM     FLOW OUT OF   OVRLND.    DIRECT     STREAM      STREAM      STREAM     STREAM  STREAMBED   FLOW TO   CHNG. UNSAT. 
                SEG.NO.  NO.   STRM. RCH.    LOSS       STRM. RCH.   RUNOFF     PRECIP       ET         HEAD        DEPTH      WIDTH  CONDCTNC.   WAT. TAB.

   1    4    1     1     1    3.3910E+01  8.5167E-03   3.3901E+01  0.000E+00  0.000E+00  0.000E+00  1.44048E+02  4.198E+00  8.792E+00  1.813E-03  0.000E+00  0.000E+00
   1    4    2     1     2    3.3901E+01  8.5148E-03   3.3893E+01  0.000E+00  0.000E+00  0.000E+00  1.43748E+02  4.198E+00  8.790E+00  1.813E-03  8.531E-03 -1.596E-05
   1    4    3     1     3    3.3893E+01  8.5128E-03   3.3884E+01  0.000E+00  0.000E+00  0.000E+00  1.43447E+02  4.197E+00  8.789E+00  1.812E-03  8.545E-03 -3.181E-05
   1    4    4     1     4    3.3884E+01  8.5109E-03   3.3876E+01  0.000E+00  0.000E+00  0.000E+00  1.43147E+02  4.197E+00  8.787E+00  1.812E-03  8.559E-03 -4.774E-05
   1    4    5     1     5    3.3876E+01  8.5089E-03   3.3867E+01  0.000E+00  0.000E+00  0.000E+00  1.42846E+02  4.196E+00  8.786E+00  1.812E-03  8.573E-03 -6.384E-05
   1    4    6     1     6    3.3867E+01  8.5069E-03   3.3859E+01  0.000E+00  0.000E+00  0.000E+00  1.42546E+02  4.196E+00  8.784E+00  1.812E-03  8.587E-03 -8.038E-05
   1    4    7     1     7    3.3859E+01  8.5050E-03   3.3850E+01  0.000E+00  0.000E+00  0.000E+00  1.42246E+02  4.196E+00  8.782E+00  1.811E-03  8.601E-03 -9.563E-05
   1    4    8     1     8    3.3850E+01  8.5030E-03   3.3842E+01  0.000E+00  0.000E+00  0.000E+00  1.41945E+02  4.195E+00  8.781E+00  1.811E-03  8.614E-03 -1.112E-04
   1    4    9     1     9    3.3842E+01  8.5011E-03   3.3833E+01  0.000E+00  0.000E+00  0.000E+00  1.41645E+02  4.195E+00  8.779E+00  1.811E-03  8.628E-03 -1.267E-04
   1    4   10     1    10    3.3833E+01  8.4991E-03   3.3825E+01  0.000E+00  0.000E+00  0.000E+00  1.41344E+02  4.194E+00  8.777E+00  1.811E-03  8.641E-03 -1.420E-04
   1    4   11     1    11    3.3825E+01  8.4972E-03   3.3816E+01  0.000E+00  0.000E+00  0.000E+00  1.41044E+02  4.194E+00  8.776E+00  1.810E-03  8.654E-03 -1.568E-04
   1    4   12     1    12    3.3816E+01  8.4952E-03   3.3808E+01  0.000E+00  0.000E+00  0.000E+00  1.40743E+02  4.194E+00  8.774E+00  1.810E-03  8.666E-03 -1.713E-04
   1    4   13     1    13    3.3808E+01  8.4933E-03   3.3799E+01  0.000E+00  0.000E+00  0.000E+00  1.40443E+02  4.193E+00  8.772E+00  1.810E-03  8.678E-03 -1.851E-04
   1    4   14     1    14    3.3799E+01  8.4913E-03   3.3791E+01  0.000E+00  0.000E+00  0.000E+00  1.40143E+02  4.193E+00  8.771E+00  1.809E-03  8.690E-03 -1.983E-04
   1    4   15     1    15    3.3791E+01  8.4894E-03   3.3782E+01  0.000E+00  0.000E+00  0.000E+00  1.39842E+02  4.192E+00  8.769E+00  1.809E-03  8.700E-03 -2.107E-04
   1    4   16     1    16    3.3782E+01  8.4874E-03   3.3774E+01  0.000E+00  0.000E+00  0.000E+00  1.39542E+02  4.192E+00  8.767E+00  1.809E-03  8.710E-03 -2.222E-04
   1    4   17     1    17    3.3774E+01  8.4855E-03   3.3765E+01  0.000E+00  0.000E+00  0.000E+00  1.39241E+02  4.191E+00  8.766E+00  1.809E-03  8.718E-03 -2.329E-04
   1    4   18     1    18    3.3765E+01  8.4835E-03   3.3757E+01  0.000E+00  0.000E+00  0.000E+00  1.38941E+02  4.191E+00  8.764E+00  1.808E-03  8.726E-03 -2.427E-04
   1    4   19     1    19    3.3757E+01  8.4816E-03   3.3749E+01  0.000E+00  0.000E+00  0.000E+00  1.38641E+02  4.191E+00  8.762E+00  1.808E-03  8.733E-03 -2.515E-04
   1    4   20     1    20    3.3749E+01  8.4796E-03   3.3740E+01  0.000E+00  0.000E+00  0.000E+00  1.38340E+02  4.190E+00  8.761E+00  1.808E-03  8.739E-03 -2.593E-04
   1    4   21     1    21    3.3740E+01  8.4777E-03   3.3732E+01  0.000E+00  0.000E+00  0.000E+00  1.38040E+02  4.190E+00  8.759E+00  1.808E-03  8.744E-03 -2.662E-04
   1    4   22     1    22    3.3732E+01  8.4757E-03   3.3723E+01  0.000E+00  0.000E+00  0.000E+00  1.37739E+02  4.189E+00  8.758E+00  1.807E-03  8.748E-03 -2.721E-04
   1    4   23     1    23    3.3723E+01  8.4738E-03   3.3715E+01  0.000E+00  0.000E+00  0.000E+00  1.37439E+02  4.189E+00  8.756E+00  1.807E-03  8.751E-03 -2.772E-04
   1    4   24     1    24    3.3715E+01  8.4718E-03   3.3706E+01  0.000E+00  0.000E+00  0.000E+00  1.37139E+02  4.189E+00  8.754E+00  1.807E-03  8.753E-03 -2.814E-04
   1    4   25     1    25    3.3706E+01  8.4699E-03   3.3698E+01  0.000E+00  0.000E+00  0.000E+00  1.36838E+02  4.188E+00  8.753E+00  1.807E-03  8.755E-03 -2.847E-04
   1    4   26     1    26    3.3698E+01  8.4679E-03   3.3689E+01  0.000E+00  0.000E+00  0.000E+00  1.36538E+02  4.188E+00  8.751E+00  1.806E-03  8.755E-03 -2.874E-04
   1    4   27     1    27    3.3689E+01  8.4660E-03   3.3681E+01  0.000E+00  0.000E+00  0.000E+00  1.36237E+02  4.187E+00  8.749E+00  1.806E-03  8.755E-03 -2.894E-04
   1    4   28     1    28    3.3681E+01  8.4640E-03   3.3672E+01  0.000E+00  0.000E+00  0.000E+00  1.35937E+02  4.187E+00  8.748E+00  1.806E-03  8.755E-03 -2.909E-04
   1    4   29     1    29    3.3672E+01  8.4621E-03   3.3664E+01  0.000E+00  0.000E+00  0.000E+00  1.35637E+02  4.187E+00  8.746E+00  1.806E-03  8.754E-03 -2.920E-04
   1    4   30     1    30    3.3664E+01  8.4601E-03   3.3655E+01  0.000E+00  0.000E+00  0.000E+00  1.35336E+02  4.186E+00  8.744E+00  1.805E-03  8.753E-03 -2.927E-04
   1    4   31     1    31    3.3655E+01  8.4582E-03   3.3647E+01  0.000E+00  0.000E+00  0.000E+00  1.35036E+02  4.186E+00  8.743E+00  1.805E-03  8.752E-03 -2.934E-04
   1    4   32     1    32    3.3647E+01  8.4562E-03   3.3638E+01  0.000E+00  0.000E+00  0.000E+00  1.34735E+02  4.185E+00  8.741E+00  1.805E-03  8.750E-03 -2.940E-04
   1    4   33     1    33    3.3638E+01  8.4543E-03   3.3630E+01  0.000E+00  0.000E+00  0.000E+00  1.34435E+02  4.185E+00  8.739E+00  1.805E-03  8.749E-03 -2.948E-04
   1    4   34     1    34    3.3630E+01  8.4523E-03   3.3622E+01  0.000E+00  0.000E+00  0.000E+00  1.34134E+02  4.184E+00  8.738E+00  1.804E-03  8.748E-03 -2.961E-04
   1    4   35     1    35    3.3622E+01  8.4504E-03   3.3613E+01  0.000E+00  0.000E+00  0.000E+00  1.33834E+02  4.184E+00  8.736E+00  1.804E-03  8.748E-03 -2.980E-04
   1    4   36     1    36    3.3613E+01  8.4484E-03   3.3605E+01  0.000E+00  0.000E+00  0.000E+00  1.33534E+02  4.184E+00  8.735E+00  1.804E-03  8.749E-03 -3.008E-04
   1    4   37     1    37    3.3605E+01  8.4465E-03   3.3596E+01  0.000E+00  0.000E+00  0.000E+00  1.33233E+02  4.183E+00  8.733E+00  1.804E-03  8.751E-03 -3.047E-04
   1    4   38     1    38    3.3596E+01  8.4445E-03   3.3588E+01  0.000E+00  0.000E+00  0.000E+00  1.32933E+02  4.183E+00  8.731E+00  1.803E-03  8.755E-03 -3.102E-04
   1    4   39     1    39    3.3588E+01  8.4426E-03   3.3579E+01  0.000E+00  0.000E+00  0.000E+00  1.32632E+02  4.182E+00  8.730E+00  1.803E-03  8.760E-03 -3.175E-04
   1    4   40     1    40    3.3579E+01  8.4407E-03   3.3571E+01  0.000E+00  0.000E+00  0.000E+00  1.32332E+02  4.182E+00  8.728E+00  1.803E-03  8.768E-03 -3.270E-04
   1    4   41     1    41    3.3571E+01  8.4387E-03   3.3562E+01  0.000E+00  0.000E+00  0.000E+00  1.32032E+02  4.182E+00  8.726E+00  1.803E-03  8.778E-03 -3.393E-04
   1    4   42     1    42    3.3562E+01  8.4368E-03   3.3554E+01  0.000E+00  0.000E+00  0.000E+00  1.31731E+02  4.181E+00  8.725E+00  1.802E-03  8.791E-03 -3.547E-04
   1    4   43     1    43    3.3554E+01  8.4348E-03   3.3546E+01  0.000E+00  0.000E+00  0.000E+00  1.31431E+02  4.181E+00  8.723E+00  1.802E-03  8.808E-03 -3.736E-04
   1    4   44     1    44    3.3546E+01  8.4329E-03   3.3537E+01  0.000E+00  0.000E+00  0.000E+00  1.31130E+02  4.180E+00  8.721E+00  1.802E-03  8.829E-03 -3.966E-04
   1    4   45     1    45    3.3537E+01  8.4309E-03   3.3529E+01  0.000E+00  0.000E+00  0.000E+00  1.30830E+02  4.180E+00  8.720E+00  1.802E-03  8.855E-03 -4.237E-04
   1    4   46     1    46    3.3529E+01  8.4290E-03   3.3520E+01  0.000E+00  0.000E+00  0.000E+00  1.30530E+02  4.180E+00  8.718E+00  1.801E-03  8.884E-03 -4.548E-04
   1    4   47     1    47    3.3520E+01  8.4271E-03   3.3512E+01  0.000E+00  0.000E+00  0.000E+00  1.30229E+02  4.179E+00  8.716E+00  1.801E-03  8.916E-03 -4.892E-04
   1    4   48     1    48    3.3512E+01  8.4251E-03   3.3503E+01  0.000E+00  0.000E+00  0.000E+00  1.29929E+02  4.179E+00  8.715E+00  1.801E-03  8.949E-03 -5.243E-04
   1    4   49     1    49    3.3503E+01  8.4232E-03   3.3495E+01  0.000E+00  0.000E+00  0.000E+00  1.29628E+02  4.178E+00  8.713E+00  1.800E-03  8.978E-03 -5.546E-04
   1    4   50     1    50    3.3495E+01  8.4212E-03   3.3487E+01  0.000E+00  0.000E+00  0.000E+00  1.29328E+02  4.178E+00  8.712E+00  1.800E-03  8.988E-03 -5.672E-04
   1    4   51     1    51    3.3487E+01  8.4193E-03   3.3478E+01  0.000E+00  0.000E+00  0.000E+00  1.29027E+02  4.177E+00  8.710E+00  1.800E-03  8.953E-03 -5.334E-04
   1    4   52     1    52    3.3478E+01  8.4174E-03   3.3470E+01  0.000E+00  0.000E+00  0.000E+00  1.28727E+02  4.177E+00  8.708E+00  1.800E-03  8.806E-03 -3.884E-04
   1    4   53     1    53    3.3470E+01  8.4154E-03   3.3461E+01  0.000E+00  0.000E+00  0.000E+00  1.28427E+02  4.177E+00  8.707E+00  1.799E-03  8.400E-03  1.588E-05
   1    4   54     1    54    3.3461E+01  8.4135E-03   3.3453E+01  0.000E+00  0.000E+00  0.000E+00  1.28126E+02  4.176E+00  8.705E+00  1.799E-03  7.647E-03  7.662E-04
   1    4   55     1    55    3.3453E+01  8.4115E-03   3.3444E+01  0.000E+00  0.000E+00  0.000E+00  1.27826E+02  4.176E+00  8.703E+00  1.799E-03  6.916E-03  1.496E-03
   1    4   56     1    56    3.3444E+01  8.4096E-03   3.3436E+01  0.000E+00  0.000E+00  0.000E+00  1.27525E+02  4.175E+00  8.702E+00  1.799E-03  6.318E-03  2.092E-03
   1    4   57     1    57    3.3436E+01  8.4077E-03   3.3428E+01  0.000E+00  0.000E+00  0.000E+00  1.27225E+02  4.175E+00  8.700E+00  1.798E-03  5.776E-03  2.631E-03
   1    4   58     1    58    3.3428E+01  8.4057E-03   3.3419E+01  0.000E+00  0.000E+00  0.000E+00  1.26925E+02  4.175E+00  8.698E+00  1.798E-03  5.281E-03  3.125E-03
   1    4   59     1    59    3.3419E+01  8.4038E-03   3.3411E+01  0.000E+00  0.000E+00  0.000E+00  1.26624E+02  4.174E+00  8.697E+00  1.798E-03  4.834E-03  3.570E-03
   1    4   60     1    60    3.3411E+01  8.4018E-03   3.3402E+01  0.000E+00  0.000E+00  0.000E+00  1.26324E+02  4.174E+00  8.695E+00  1.798E-03  4.448E-03  3.953E-03
   1    4   61     1    61    3.3402E+01  8.3999E-03   3.3394E+01  0.000E+00  0.000E+00  0.000E+00  1.26023E+02  4.173E+00  8.694E+00  1.797E-03  4.128E-03  4.271E-03
   1    4   62     1    62    3.3394E+01  8.3980E-03   3.3386E+01  0.000E+00  0.000E+00  0.000E+00  1.25723E+02  4.173E+00  8.692E+00  1.797E-03  3.876E-03  4.522E-03
   1    4   63     1    63    3.3386E+01  8.3960E-03   3.3377E+01  0.000E+00  0.000E+00  0.000E+00  1.25423E+02  4.173E+00  8.690E+00  1.797E-03  3.697E-03  4.699E-03
   1    4   64     1    64    3.3377E+01  8.3941E-03   3.3369E+01  0.000E+00  0.000E+00  0.000E+00  1.25122E+02  4.172E+00  8.689E+00  1.797E-03  3.594E-03  4.801E-03
   1    4   65     1    65    3.3369E+01  8.3922E-03   3.3360E+01  0.000E+00  0.000E+00  0.000E+00  1.24822E+02  4.172E+00  8.687E+00  1.796E-03  3.566E-03  4.827E-03
   1    4   66     1    66    3.3360E+01  8.3902E-03   3.3352E+01  0.000E+00  0.000E+00  0.000E+00  1.24521E+02  4.171E+00  8.685E+00  1.796E-03  3.617E-03  4.773E-03
   1    4   67     1    67    3.3352E+01  8.3883E-03   3.3344E+01  0.000E+00  0.000E+00  0.000E+00  1.24221E+02  4.171E+00  8.684E+00  1.796E-03  4.737E-03  3.651E-03
   1    4   68     1    68    3.3344E+01  8.3864E-03   3.3335E+01  0.000E+00  0.000E+00  0.000E+00  1.23921E+02  4.171E+00  8.682E+00  1.796E-03  5.632E-03  2.754E-03
   1    4   69     1    69    3.3335E+01  8.3844E-03   3.3327E+01  0.000E+00  0.000E+00  0.000E+00  1.23620E+02  4.170E+00  8.680E+00  1.795E-03  6.491E-03  1.894E-03
   1    4   70     1    70    3.3327E+01  8.3825E-03   3.3319E+01  0.000E+00  0.000E+00  0.000E+00  1.23320E+02  4.170E+00  8.679E+00  1.795E-03  7.309E-03  1.073E-03
   1    4   71     1    71    3.3319E+01  8.3806E-03   3.3310E+01  0.000E+00  0.000E+00  0.000E+00  1.23019E+02  4.169E+00  8.677E+00  1.795E-03  8.082E-03  2.989E-04
   1    4   72     1    72    3.3310E+01  7.9226E-03   3.3302E+01  0.000E+00  0.000E+00  0.000E+00  1.22719E+02  4.169E+00  8.676E+00  1.795E-03  0.000E+00  0.000E+00
   1    4   73     1    73    3.3302E+01  7.1981E-03   3.3295E+01  0.000E+00  0.000E+00  0.000E+00  1.22419E+02  4.169E+00  8.674E+00  1.794E-03  0.000E+00  0.000E+00
   1    4   74     1    74    3.3295E+01  6.5234E-03   3.3289E+01  0.000E+00  0.000E+00  0.000E+00  1.22118E+02  4.168E+00  8.673E+00  1.794E-03  0.000E+00  0.000E+00
   1    4   75     1    75    3.3289E+01  5.8945E-03   3.3283E+01  0.000E+00  0.000E+00  0.000E+00  1.21818E+02  4.168E+00  8.671E+00  1.794E-03  0.000E+00  0.000E+00
   1    4   76     1    76    3.3283E+01  5.3071E-03   3.3277E+01  0.000E+00  0.000E+00  0.000E+00  1.21518E+02  4.168E+00  8.670E+00  1.794E-03  0.000E+00  0.000E+00
   1    4   77     1    77    3.3277E+01  4.7571E-03   3.3273E+01  0.000E+00  0.000E+00  0.000E+00  1.21217E+02  4.167E+00  8.669E+00  1.794E-03  0.000E+00  0.000E+00
   1    4   78     1    78    3.3273E+01  4.2407E-03   3.3268E+01  0.000E+00  0.000E+00  0.000E+00  1.20917E+02  4.167E+00  8.669E+00  1.793E-03  0.000E+00  0.000E+00
   1    4   79     1    79    3.3268E+01  3.7546E-03   3.3265E+01  0.000E+00  0.000E+00  0.000E+00  1.20617E+02  4.167E+00  8.668E+00  1.793E-03  0.000E+00  0.000E+00
   1    4   80     1    80    3.3265E+01  3.2953E-03   3.3261E+01  0.000E+00  0.000E+00  0.000E+00  1.20317E+02  4.167E+00  8.667E+00  1.793E-03  0.000E+00  0.000E+00
   1    4   81     1    81    3.3261E+01  2.8594E-03   3.3258E+01  0.000E+00  0.000E+00  0.000E+00  1.20017E+02  4.167E+00  8.666E+00  1.793E-03  0.000E+00  0.000E+00
   1    4   82     1    82    3.3258E+01  2.4444E-03   3.3256E+01  0.000E+00  0.000E+00  0.000E+00  1.19716E+02  4.166E+00  8.666E+00  1.793E-03  0.000E+00  0.000E+00
   1    4   83     1    83    3.3256E+01  2.0476E-03   3.3254E+01  0.000E+00  0.000E+00  0.000E+00  1.19416E+02  4.166E+00  8.665E+00  1.793E-03  0.000E+00  0.000E+00
   1    4   84     1    84    3.3254E+01  1.6654E-03   3.3252E+01  0.000E+00  0.000E+00  0.000E+00  1.19116E+02  4.166E+00  8.665E+00  1.793E-03  0.000E+00  0.000E+00
   1    4   85     1    85    3.3252E+01  1.2953E-03   3.3251E+01  0.000E+00  0.000E+00  0.000E+00  1.18816E+02  4.166E+00  8.665E+00  1.793E-03  0.000E+00  0.000E+00
   1    4   86     1    86    3.3251E+01  9.3527E-04   3.3250E+01  0.000E+00  0.000E+00  0.000E+00  1.18516E+02  4.166E+00  8.665E+00  1.793E-03  0.000E+00  0.000E+00
   1    4   87     1    87    3.3250E+01  5.8294E-04   3.3249E+01  0.000E+00  0.000E+00  0.000E+00  1.18216E+02  4.166E+00  8.664E+00  1.793E-03  0.000E+00  0.000E+00
   1    4   88     1    88    3.3249E+01  2.3485E-04   3.3249E+01  0.000E+00  0.000E+00  0.000E+00  1.17916E+02  4.166E+00  8.664E+00  1.793E-03  0.000E+00  0.000E+00
   1    4   89     1    89    3.3249E+01 -1.1151E-04   3.3249E+01  0.000E+00  0.000E+00  0.000E+00  1.17616E+02  4.166E+00  8.664E+00  1.793E-03  0.000E+00  0.000E+00
   1    4   90     1    90    3.3249E+01 -4.5769E-04   3.3250E+01  0.000E+00  0.000E+00  0.000E+00  1.17316E+02  4.166E+00  8.664E+00  1.793E-03  0.000E+00  0.000E+00
   1    4   91     1    91    3.3250E+01 -8.0627E-04   3.3251E+01  0.000E+00  0.000E+00  0.000E+00  1.17016E+02  4.166E+00  8.665E+00  1.793E-03  0.000E+00  0.000E+00
   1    4   92     1    92    3.3251E+01 -1.1607E-03   3.3252E+01  0.000E+00  0.000E+00  0.000E+00  1.16716E+02  4.166E+00  8.665E+00  1.793E-03  0.000E+00  0.000E+00
   1    4   93     1    93    3.3252E+01 -1.5236E-03   3.3253E+01  0.000E+00  0.000E+00  0.000E+00  1.16416E+02  4.166E+00  8.665E+00  1.793E-03  0.000E+00  0.000E+00
   1    4   94     1    94    3.3253E+01 -1.8967E-03   3.3255E+01  0.000E+00  0.000E+00  0.000E+00  1.16116E+02  4.166E+00  8.665E+00  1.793E-03  0.000E+00  0.000E+00
   1    4   95     1    95    3.3255E+01 -2.2830E-03   3.3257E+01  0.000E+00  0.000E+00  0.000E+00  1.15816E+02  4.166E+00  8.666E+00  1.793E-03  0.000E+00  0.000E+00
   1    4   96     1    96    3.3257E+01 -2.6861E-03   3.3260E+01  0.000E+00  0.000E+00  0.000E+00  1.15517E+02  4.167E+00  8.666E+00  1.793E-03  0.000E+00  0.000E+00
   1    4   97     1    97    3.3260E+01 -3.1090E-03   3.3263E+01  0.000E+00  0.000E+00  0.000E+00  1.15217E+02  4.167E+00  8.667E+00  1.793E-03  0.000E+00  0.000E+00
   1    4   98     1    98    3.3263E+01 -3.5542E-03   3.3267E+01  0.000E+00  0.000E+00  0.000E+00  1.14917E+02  4.167E+00  8.667E+00  1.793E-03  0.000E+00  0.000E+00
   1    4   99     1    99    3.3267E+01 -4.0256E-03   3.3271E+01  0.000E+00  0.000E+00  0.000E+00  1.14617E+02  4.167E+00  8.668E+00  1.793E-03  0.000E+00  0.000E+00
   1    4  100     1   100    3.3271E+01 -4.5272E-03   3.3275E+01  0.000E+00  0.000E+00  0.000E+00  1.14317E+02  4.167E+00  8.669E+00  1.794E-03  0.000E+00  0.000E+00



1
  VOLUMETRIC BUDGET FOR UNSATURATED ZONE BENEATH STREAMS AT END OF TIME STEP    30 STRESS PERIOD   8
  ------------------------------------------------------------------------------------------------

    CUMULATIVE VOLUMES             L**3    RATES FOR THIS TIME STEP         L**3/T
    ------------------                     ------------------------


          STREAM LOSS =      8625191.0000            STREAM LOSS =            0.5998
    CHANGE IN STORAGE =       475534.1562      CHANGE IN STORAGE =        4.1096E-02
       RECHARGE TO GW =      8152144.0000         RECHARGE TO GW =            0.5587

             TOTAL IN =      8625191.0000               TOTAL IN =            0.5998

            TOTAL OUT =      8627678.0000              TOTAL OUT =            0.5998

             IN - OUT =        -2487.0000               IN - OUT =            0.0000

  PERCENT DISCREPANCY =           -0.01      PERCENT DISCREPANCY =             0.00



1
  VOLUMETRIC BUDGET FOR ENTIRE MODEL AT END OF TIME STEP   30, STRESS PERIOD   8
  ------------------------------------------------------------------------------

     CUMULATIVE VOLUMES      L**3       RATES FOR THIS TIME STEP      L**3/T
     ------------------                 ------------------------

           IN:                                      IN:
           ---                                      ---
             STORAGE =      234843.0625               STORAGE =           0.0000
       CONSTANT HEAD =           0.0000         CONSTANT HEAD =           0.0000
     HEAD DEP BOUNDS =     8198651.5000       HEAD DEP BOUNDS =       9.5339E-02
      STREAM LEAKAGE =     8624376.0000        STREAM LEAKAGE =           0.6197

            TOTAL IN =    17057872.0000              TOTAL IN =           0.7150

          OUT:                                     OUT:
          ----                                     ----
             STORAGE =    16776570.0000               STORAGE =           0.6889
       CONSTANT HEAD =           0.0000         CONSTANT HEAD =           0.0000
     HEAD DEP BOUNDS =           0.0000       HEAD DEP BOUNDS =           0.0000
      STREAM LEAKAGE =      281644.9688        STREAM LEAKAGE =       2.6141E-02

           TOTAL OUT =    17058214.0000             TOTAL OUT =           0.7150

            IN - OUT =        -342.0000              IN - OUT =       3.4630E-05

 PERCENT DISCREPANCY =          -0.00     PERCENT DISCREPANCY =           0.00






         TIME SUMMARY AT END OF TIME STEP   30 IN STRESS PERIOD    8
                    SECONDS     MINUTES      HOURS       DAYS        YEARS
                    -----------------------------------------------------------
   TIME STEP LENGTH 2.49961E+05  4166.0      69.434      2.8931     7.92080E-03
 STRESS PERIOD TIME 2.59200E+06  43200.      720.00      30.000     8.21355E-02
         TOTAL TIME 2.07360E+07 3.45600E+05  5760.0      240.00     0.65708    
1
1
                            STRESS PERIOD NO.    9, LENGTH =   2592000.    
                            -----------------------------------------------

                              NUMBER OF TIME STEPS =    30

                               MULTIPLIER FOR DELT =     1.100

                            INITIAL TIME STEP SIZE =   15757.40    

 REUSING NON-PARAMETER GHB CELLS FROM LAST STRESS PERIOD

      7 GHB CELLS



 CLASSIFICATION & COUNT OF STREAM SEGMENTS BASED ON SOURCE OF INFLOW:

                HEADWATER     DIVERSION     RECEIVES TRIBUTARY FLOW
                ---------     ---------     -----------------------
                     1              0               0



                    INPUT DATA FOR EACH STREAM SEGMENT
 ---------------------------------------------------------------------------------------------

 SEGMENT    SEG.     INFLOW   OVERLAND   STREAM    STREAM   ICALC  OUTFLOW  DIVERSION PRIORITY
    NO.    LENGTH     RATE     RUNOFF      ET       PPT.    METH.  TO SEG.  FROM SEG.    NO.

      1  2.000E+04 1.628E+01 0.000E+00 0.000E+00 0.000E+00    2        0        0        0


         STREAMBED PROPERTIES AND STREAM DIMENSIONS

 SEGMENT     BED HYD. COND.      BED THICKNESS     ELEV.-TOP OF BED     WIDTH OF STREAM     DEPTH OF STREAM    STREAM ROUGHNESS
    No.     UPPER     LOWER     UPPER     LOWER     UPPER     LOWER     UPPER     LOWER     UPPER     LOWER   CHANNEL      BANK

     1  3.500E-07 3.500E-07                                                                                 3.000E-02 4.000E-02

  EIGHT POINT CROSS-SECTION DATA FOR SEGMENTS WITH ICALC = 2
    X VALUES X VALUES START FROM LEFT SIDE LOOKING DOWNSTREAM

     SEGMENT NO.        X1        X2        X3        X4        X5        X6        X7        X8
            1      0.000E+00 2.000E+00 4.000E+00 6.000E+00 8.000E+00 1.000E+01 1.200E+01 1.400E+01

    Z VALUES ARE RELATIVE TO STREAMBED ELEVATION

     SEGMENT NO.          Z1        Z2        Z3        Z4        Z5        Z6        Z7        Z8
            1      6.000E+00 4.500E+00 3.500E+00 0.000E+00 3.000E-01 3.500E+00 4.500E+00 6.000E+00




 SOLVING FOR HEAD 

 NO OUTPUT CONTROL FOR STRESS PERIOD    9   TIME STEP    1

 SOLVING FOR HEAD 

 NO OUTPUT CONTROL FOR STRESS PERIOD    9   TIME STEP    2

 SOLVING FOR HEAD 

 NO OUTPUT CONTROL FOR STRESS PERIOD    9   TIME STEP    3

 SOLVING FOR HEAD 

 NO OUTPUT CONTROL FOR STRESS PERIOD    9   TIME STEP    4

 SOLVING FOR HEAD 

 NO OUTPUT CONTROL FOR STRESS PERIOD    9   TIME STEP    5

 SOLVING FOR HEAD 

 NO OUTPUT CONTROL FOR STRESS PERIOD    9   TIME STEP    6

 SOLVING FOR HEAD 

 NO OUTPUT CONTROL FOR STRESS PERIOD    9   TIME STEP    7

 SOLVING FOR HEAD 

 NO OUTPUT CONTROL FOR STRESS PERIOD    9   TIME STEP    8

 SOLVING FOR HEAD 

 NO OUTPUT CONTROL FOR STRESS PERIOD    9   TIME STEP    9

 SOLVING FOR HEAD 

 NO OUTPUT CONTROL FOR STRESS PERIOD    9   TIME STEP   10

 SOLVING FOR HEAD 

 NO OUTPUT CONTROL FOR STRESS PERIOD    9   TIME STEP   11

 SOLVING FOR HEAD 

 NO OUTPUT CONTROL FOR STRESS PERIOD    9   TIME STEP   12

 SOLVING FOR HEAD 

 NO OUTPUT CONTROL FOR STRESS PERIOD    9   TIME STEP   13

 SOLVING FOR HEAD 

 NO OUTPUT CONTROL FOR STRESS PERIOD    9   TIME STEP   14

 SOLVING FOR HEAD 

 NO OUTPUT CONTROL FOR STRESS PERIOD    9   TIME STEP   15

 SOLVING FOR HEAD 

 NO OUTPUT CONTROL FOR STRESS PERIOD    9   TIME STEP   16

 SOLVING FOR HEAD 

 NO OUTPUT CONTROL FOR STRESS PERIOD    9   TIME STEP   17

 SOLVING FOR HEAD 

 NO OUTPUT CONTROL FOR STRESS PERIOD    9   TIME STEP   18

 SOLVING FOR HEAD 

 NO OUTPUT CONTROL FOR STRESS PERIOD    9   TIME STEP   19

 SOLVING FOR HEAD 

 NO OUTPUT CONTROL FOR STRESS PERIOD    9   TIME STEP   20

 SOLVING FOR HEAD 

 NO OUTPUT CONTROL FOR STRESS PERIOD    9   TIME STEP   21

 SOLVING FOR HEAD 

 NO OUTPUT CONTROL FOR STRESS PERIOD    9   TIME STEP   22

 SOLVING FOR HEAD 

 NO OUTPUT CONTROL FOR STRESS PERIOD    9   TIME STEP   23

 SOLVING FOR HEAD 

 NO OUTPUT CONTROL FOR STRESS PERIOD    9   TIME STEP   24

 SOLVING FOR HEAD 

 NO OUTPUT CONTROL FOR STRESS PERIOD    9   TIME STEP   25

 SOLVING FOR HEAD 

 NO OUTPUT CONTROL FOR STRESS PERIOD    9   TIME STEP   26

 SOLVING FOR HEAD 

 NO OUTPUT CONTROL FOR STRESS PERIOD    9   TIME STEP   27

 SOLVING FOR HEAD 

 NO OUTPUT CONTROL FOR STRESS PERIOD    9   TIME STEP   28

 SOLVING FOR HEAD 

 NO OUTPUT CONTROL FOR STRESS PERIOD    9   TIME STEP   29

 SOLVING FOR HEAD 

 NO OUTPUT CONTROL FOR STRESS PERIOD    9   TIME STEP   30



 STREAM LISTING     PERIOD      9   STEP       30

 LAYER ROW COL. STREAM  RCH.   FLOW INTO    STREAM     FLOW OUT OF   OVRLND.    DIRECT     STREAM      STREAM      STREAM     STREAM  STREAMBED   FLOW TO   CHNG. UNSAT. 
                SEG.NO.  NO.   STRM. RCH.    LOSS       STRM. RCH.   RUNOFF     PRECIP       ET         HEAD        DEPTH      WIDTH  CONDCTNC.   WAT. TAB.

   1    4    1     1     1    1.6280E+01  4.4112E-03   1.6276E+01  0.000E+00  0.000E+00  0.000E+00  1.42920E+02  3.070E+00  5.486E+00  1.236E-03  4.525E-03 -1.140E-04
   1    4    2     1     2    1.6276E+01  4.4102E-03   1.6271E+01  0.000E+00  0.000E+00  0.000E+00  1.42620E+02  3.070E+00  5.485E+00  1.235E-03  4.528E-03 -1.183E-04
   1    4    3     1     3    1.6271E+01  4.4092E-03   1.6267E+01  0.000E+00  0.000E+00  0.000E+00  1.42319E+02  3.069E+00  5.485E+00  1.235E-03  4.532E-03 -1.225E-04
   1    4    4     1     4    1.6267E+01  4.4082E-03   1.6262E+01  0.000E+00  0.000E+00  0.000E+00  1.42019E+02  3.069E+00  5.484E+00  1.235E-03  4.535E-03 -1.268E-04
   1    4    5     1     5    1.6262E+01  4.4072E-03   1.6258E+01  0.000E+00  0.000E+00  0.000E+00  1.41719E+02  3.069E+00  5.484E+00  1.235E-03  4.539E-03 -1.315E-04
   1    4    6     1     6    1.6258E+01  4.4062E-03   1.6254E+01  0.000E+00  0.000E+00  0.000E+00  1.41418E+02  3.068E+00  5.483E+00  1.235E-03  4.543E-03 -1.365E-04
   1    4    7     1     7    1.6254E+01  4.4053E-03   1.6249E+01  0.000E+00  0.000E+00  0.000E+00  1.41118E+02  3.068E+00  5.483E+00  1.235E-03  4.547E-03 -1.415E-04
   1    4    8     1     8    1.6249E+01  4.4043E-03   1.6245E+01  0.000E+00  0.000E+00  0.000E+00  1.40817E+02  3.067E+00  5.482E+00  1.235E-03  4.551E-03 -1.470E-04
   1    4    9     1     9    1.6245E+01  4.4033E-03   1.6240E+01  0.000E+00  0.000E+00  0.000E+00  1.40517E+02  3.067E+00  5.482E+00  1.234E-03  4.556E-03 -1.529E-04
   1    4   10     1    10    1.6240E+01  4.4023E-03   1.6236E+01  0.000E+00  0.000E+00  0.000E+00  1.40217E+02  3.067E+00  5.481E+00  1.234E-03  4.561E-03 -1.592E-04
   1    4   11     1    11    1.6236E+01  4.4013E-03   1.6232E+01  0.000E+00  0.000E+00  0.000E+00  1.39916E+02  3.066E+00  5.481E+00  1.234E-03  4.567E-03 -1.657E-04
   1    4   12     1    12    1.6232E+01  4.4003E-03   1.6227E+01  0.000E+00  0.000E+00  0.000E+00  1.39616E+02  3.066E+00  5.480E+00  1.234E-03  4.573E-03 -1.725E-04
   1    4   13     1    13    1.6227E+01  4.3994E-03   1.6223E+01  0.000E+00  0.000E+00  0.000E+00  1.39315E+02  3.065E+00  5.480E+00  1.234E-03  4.579E-03 -1.794E-04
   1    4   14     1    14    1.6223E+01  4.3984E-03   1.6218E+01  0.000E+00  0.000E+00  0.000E+00  1.39015E+02  3.065E+00  5.479E+00  1.234E-03  4.585E-03 -1.863E-04
   1    4   15     1    15    1.6218E+01  4.3974E-03   1.6214E+01  0.000E+00  0.000E+00  0.000E+00  1.38714E+02  3.064E+00  5.479E+00  1.234E-03  4.591E-03 -1.932E-04
   1    4   16     1    16    1.6214E+01  4.3964E-03   1.6210E+01  0.000E+00  0.000E+00  0.000E+00  1.38414E+02  3.064E+00  5.478E+00  1.234E-03  4.596E-03 -2.000E-04
   1    4   17     1    17    1.6210E+01  4.3954E-03   1.6205E+01  0.000E+00  0.000E+00  0.000E+00  1.38114E+02  3.064E+00  5.478E+00  1.233E-03  4.602E-03 -2.067E-04
   1    4   18     1    18    1.6205E+01  4.3944E-03   1.6201E+01  0.000E+00  0.000E+00  0.000E+00  1.37813E+02  3.063E+00  5.477E+00  1.233E-03  4.608E-03 -2.131E-04
   1    4   19     1    19    1.6201E+01  4.3935E-03   1.6196E+01  0.000E+00  0.000E+00  0.000E+00  1.37513E+02  3.063E+00  5.477E+00  1.233E-03  4.621E-03 -2.276E-04
   1    4   20     1    20    1.6196E+01  4.3925E-03   1.6192E+01  0.000E+00  0.000E+00  0.000E+00  1.37212E+02  3.062E+00  5.476E+00  1.233E-03  4.632E-03 -2.394E-04
   1    4   21     1    21    1.6192E+01  4.3915E-03   1.6188E+01  0.000E+00  0.000E+00  0.000E+00  1.36912E+02  3.062E+00  5.476E+00  1.233E-03  4.642E-03 -2.507E-04
   1    4   22     1    22    1.6188E+01  4.3905E-03   1.6183E+01  0.000E+00  0.000E+00  0.000E+00  1.36612E+02  3.062E+00  5.476E+00  1.233E-03  4.652E-03 -2.612E-04
   1    4   23     1    23    1.6183E+01  4.3895E-03   1.6179E+01  0.000E+00  0.000E+00  0.000E+00  1.36311E+02  3.061E+00  5.475E+00  1.233E-03  4.661E-03 -2.710E-04
   1    4   24     1    24    1.6179E+01  4.3886E-03   1.6174E+01  0.000E+00  0.000E+00  0.000E+00  1.36011E+02  3.061E+00  5.475E+00  1.232E-03  4.669E-03 -2.801E-04
   1    4   25     1    25    1.6174E+01  4.3876E-03   1.6170E+01  0.000E+00  0.000E+00  0.000E+00  1.35710E+02  3.060E+00  5.474E+00  1.232E-03  4.676E-03 -2.884E-04
   1    4   26     1    26    1.6170E+01  4.3866E-03   1.6166E+01  0.000E+00  0.000E+00  0.000E+00  1.35410E+02  3.060E+00  5.474E+00  1.232E-03  4.683E-03 -2.960E-04
   1    4   27     1    27    1.6166E+01  4.3856E-03   1.6161E+01  0.000E+00  0.000E+00  0.000E+00  1.35110E+02  3.060E+00  5.473E+00  1.232E-03  4.688E-03 -3.029E-04
   1    4   28     1    28    1.6161E+01  4.3846E-03   1.6157E+01  0.000E+00  0.000E+00  0.000E+00  1.34809E+02  3.059E+00  5.473E+00  1.232E-03  4.694E-03 -3.091E-04
   1    4   29     1    29    1.6157E+01  4.3837E-03   1.6152E+01  0.000E+00  0.000E+00  0.000E+00  1.34509E+02  3.059E+00  5.472E+00  1.232E-03  4.698E-03 -3.147E-04
   1    4   30     1    30    1.6152E+01  4.3827E-03   1.6148E+01  0.000E+00  0.000E+00  0.000E+00  1.34208E+02  3.058E+00  5.472E+00  1.232E-03  4.702E-03 -3.197E-04
   1    4   31     1    31    1.6148E+01  4.3817E-03   1.6144E+01  0.000E+00  0.000E+00  0.000E+00  1.33908E+02  3.058E+00  5.471E+00  1.232E-03  4.706E-03 -3.242E-04
   1    4   32     1    32    1.6144E+01  4.3807E-03   1.6139E+01  0.000E+00  0.000E+00  0.000E+00  1.33608E+02  3.058E+00  5.471E+00  1.231E-03  4.709E-03 -3.282E-04
   1    4   33     1    33    1.6139E+01  4.3797E-03   1.6135E+01  0.000E+00  0.000E+00  0.000E+00  1.33307E+02  3.057E+00  5.470E+00  1.231E-03  4.711E-03 -3.318E-04
   1    4   34     1    34    1.6135E+01  4.3788E-03   1.6131E+01  0.000E+00  0.000E+00  0.000E+00  1.33007E+02  3.057E+00  5.470E+00  1.231E-03  4.714E-03 -3.349E-04
   1    4   35     1    35    1.6131E+01  4.3778E-03   1.6126E+01  0.000E+00  0.000E+00  0.000E+00  1.32706E+02  3.056E+00  5.469E+00  1.231E-03  4.715E-03 -3.377E-04
   1    4   36     1    36    1.6126E+01  4.3768E-03   1.6122E+01  0.000E+00  0.000E+00  0.000E+00  1.32406E+02  3.056E+00  5.469E+00  1.231E-03  4.717E-03 -3.402E-04
   1    4   37     1    37    1.6122E+01  4.3758E-03   1.6117E+01  0.000E+00  0.000E+00  0.000E+00  1.32105E+02  3.055E+00  5.468E+00  1.231E-03  4.718E-03 -3.424E-04
   1    4   38     1    38    1.6117E+01  4.3748E-03   1.6113E+01  0.000E+00  0.000E+00  0.000E+00  1.31805E+02  3.055E+00  5.468E+00  1.231E-03  4.719E-03 -3.443E-04
   1    4   39     1    39    1.6113E+01  4.3739E-03   1.6109E+01  0.000E+00  0.000E+00  0.000E+00  1.31505E+02  3.055E+00  5.467E+00  1.230E-03  4.720E-03 -3.461E-04
   1    4   40     1    40    1.6109E+01  4.3729E-03   1.6104E+01  0.000E+00  0.000E+00  0.000E+00  1.31204E+02  3.054E+00  5.467E+00  1.230E-03  4.721E-03 -3.477E-04
   1    4   41     1    41    1.6104E+01  4.3719E-03   1.6100E+01  0.000E+00  0.000E+00  0.000E+00  1.30904E+02  3.054E+00  5.466E+00  1.230E-03  4.721E-03 -3.494E-04
   1    4   42     1    42    1.6100E+01  4.3709E-03   1.6096E+01  0.000E+00  0.000E+00  0.000E+00  1.30603E+02  3.053E+00  5.466E+00  1.230E-03  4.722E-03 -3.515E-04
   1    4   43     1    43    1.6096E+01  4.3699E-03   1.6091E+01  0.000E+00  0.000E+00  0.000E+00  1.30303E+02  3.053E+00  5.465E+00  1.230E-03  4.724E-03 -3.544E-04
   1    4   44     1    44    1.6091E+01  4.3690E-03   1.6087E+01  0.000E+00  0.000E+00  0.000E+00  1.30003E+02  3.053E+00  5.465E+00  1.230E-03  4.734E-03 -3.650E-04
   1    4   45     1    45    1.6087E+01  4.3680E-03   1.6082E+01  0.000E+00  0.000E+00  0.000E+00  1.29702E+02  3.052E+00  5.464E+00  1.230E-03  4.755E-03 -3.871E-04
   1    4   46     1    46    1.6082E+01  4.3670E-03   1.6078E+01  0.000E+00  0.000E+00  0.000E+00  1.29402E+02  3.052E+00  5.464E+00  1.230E-03  4.790E-03 -4.225E-04
   1    4   47     1    47    1.6078E+01  4.3660E-03   1.6074E+01  0.000E+00  0.000E+00  0.000E+00  1.29101E+02  3.051E+00  5.463E+00  1.229E-03  4.853E-03 -4.865E-04
   1    4   48     1    48    1.6074E+01  4.3651E-03   1.6069E+01  0.000E+00  0.000E+00  0.000E+00  1.28801E+02  3.051E+00  5.463E+00  1.229E-03  4.977E-03 -6.124E-04
   1    4   49     1    49    1.6069E+01  4.3641E-03   1.6065E+01  0.000E+00  0.000E+00  0.000E+00  1.28501E+02  3.051E+00  5.462E+00  1.229E-03  5.238E-03 -8.737E-04
   1    4   50     1    50    1.6065E+01  4.3631E-03   1.6061E+01  0.000E+00  0.000E+00  0.000E+00  1.28200E+02  3.050E+00  5.462E+00  1.229E-03  5.781E-03 -1.418E-03
   1    4   51     1    51    1.6061E+01  4.3621E-03   1.6056E+01  0.000E+00  0.000E+00  0.000E+00  1.27900E+02  3.050E+00  5.461E+00  1.229E-03  6.235E-03 -1.873E-03
   1    4   52     1    52    1.6056E+01  4.3612E-03   1.6052E+01  0.000E+00  0.000E+00  0.000E+00  1.27599E+02  3.049E+00  5.461E+00  1.229E-03  6.239E-03 -1.878E-03
   1    4   53     1    53    1.6052E+01  4.3602E-03   1.6048E+01  0.000E+00  0.000E+00  0.000E+00  1.27299E+02  3.049E+00  5.460E+00  1.229E-03  6.797E-03 -2.437E-03
   1    4   54     1    54    1.6048E+01  4.3592E-03   1.6043E+01  0.000E+00  0.000E+00  0.000E+00  1.26999E+02  3.049E+00  5.460E+00  1.228E-03  7.130E-03 -2.771E-03
   1    4   55     1    55    1.6043E+01  4.3582E-03   1.6039E+01  0.000E+00  0.000E+00  0.000E+00  1.26698E+02  3.048E+00  5.459E+00  1.228E-03  7.447E-03 -3.088E-03
   1    4   56     1    56    1.6039E+01  4.3573E-03   1.6034E+01  0.000E+00  0.000E+00  0.000E+00  1.26398E+02  3.048E+00  5.459E+00  1.228E-03  7.743E-03 -3.386E-03
   1    4   57     1    57    1.6034E+01  4.3563E-03   1.6030E+01  0.000E+00  0.000E+00  0.000E+00  1.26097E+02  3.047E+00  5.458E+00  1.228E-03  8.016E-03 -3.660E-03
   1    4   58     1    58    1.6030E+01  4.3553E-03   1.6026E+01  0.000E+00  0.000E+00  0.000E+00  1.25797E+02  3.047E+00  5.458E+00  1.228E-03  8.265E-03 -3.910E-03
   1    4   59     1    59    1.6026E+01  4.3543E-03   1.6021E+01  0.000E+00  0.000E+00  0.000E+00  1.25496E+02  3.046E+00  5.457E+00  1.228E-03  8.487E-03 -4.133E-03
   1    4   60     1    60    1.6021E+01  4.3534E-03   1.6017E+01  0.000E+00  0.000E+00  0.000E+00  1.25196E+02  3.046E+00  5.457E+00  1.228E-03  8.679E-03 -4.325E-03
   1    4   61     1    61    1.6017E+01  4.3524E-03   1.6013E+01  0.000E+00  0.000E+00  0.000E+00  1.24896E+02  3.046E+00  5.456E+00  1.228E-03  8.827E-03 -4.475E-03
   1    4   62     1    62    1.6013E+01  4.3514E-03   1.6008E+01  0.000E+00  0.000E+00  0.000E+00  1.24595E+02  3.045E+00  5.456E+00  1.227E-03  8.935E-03 -4.584E-03
   1    4   63     1    63    1.6008E+01  4.3504E-03   1.6004E+01  0.000E+00  0.000E+00  0.000E+00  1.24295E+02  3.045E+00  5.455E+00  1.227E-03  9.017E-03 -4.667E-03
   1    4   64     1    64    1.6004E+01  4.3495E-03   1.6000E+01  0.000E+00  0.000E+00  0.000E+00  1.23994E+02  3.044E+00  5.455E+00  1.227E-03  9.073E-03 -4.723E-03
   1    4   65     1    65    1.6000E+01  4.2971E-03   1.5995E+01  0.000E+00  0.000E+00  0.000E+00  1.23694E+02  3.044E+00  5.454E+00  1.227E-03  8.791E-03 -4.494E-03
   1    4   66     1    66    1.5995E+01  4.3475E-03   1.5991E+01  0.000E+00  0.000E+00  0.000E+00  1.23394E+02  3.044E+00  5.454E+00  1.227E-03  9.101E-03 -4.754E-03
   1    4   67     1    67    1.5991E+01  4.3465E-03   1.5987E+01  0.000E+00  0.000E+00  0.000E+00  1.23093E+02  3.043E+00  5.453E+00  1.227E-03  9.063E-03 -4.716E-03
   1    4   68     1    68    1.5987E+01  3.9800E-03   1.5983E+01  0.000E+00  0.000E+00  0.000E+00  1.22793E+02  3.043E+00  5.453E+00  1.227E-03  4.246E-03  4.241E-03
   1    4   69     1    69    1.5983E+01  3.5767E-03   1.5979E+01  0.000E+00  0.000E+00  0.000E+00  1.22492E+02  3.042E+00  5.453E+00  1.226E-03  3.700E-03  3.696E-03
   1    4   70     1    70    1.5979E+01  3.2078E-03   1.5976E+01  0.000E+00  0.000E+00  0.000E+00  1.22192E+02  3.042E+00  5.452E+00  1.226E-03  3.139E-03  3.136E-03
   1    4   71     1    71    1.5976E+01  2.8690E-03   1.5973E+01  0.000E+00  0.000E+00  0.000E+00  1.21892E+02  3.042E+00  5.452E+00  1.226E-03  2.723E-03  2.720E-03
   1    4   72     1    72    1.5973E+01  2.5569E-03   1.5970E+01  0.000E+00  0.000E+00  0.000E+00  1.21592E+02  3.042E+00  5.452E+00  1.226E-03  2.312E-03  2.309E-03
   1    4   73     1    73    1.5970E+01  2.2680E-03   1.5968E+01  0.000E+00  0.000E+00  0.000E+00  1.21291E+02  3.041E+00  5.451E+00  1.226E-03  1.908E-03  1.906E-03
   1    4   74     1    74    1.5968E+01  1.9993E-03   1.5966E+01  0.000E+00  0.000E+00  0.000E+00  1.20991E+02  3.041E+00  5.451E+00  1.226E-03  1.512E-03  1.510E-03
   1    4   75     1    75    1.5966E+01  1.7481E-03   1.5964E+01  0.000E+00  0.000E+00  0.000E+00  1.20691E+02  3.041E+00  5.451E+00  1.226E-03  1.126E-03  1.125E-03
   1    4   76     1    76    1.5964E+01  1.5108E-03   1.5963E+01  0.000E+00  0.000E+00  0.000E+00  1.20391E+02  3.041E+00  5.451E+00  1.226E-03  7.519E-04  7.511E-04
   1    4   77     1    77    1.5963E+01  1.2845E-03   1.5962E+01  0.000E+00  0.000E+00  0.000E+00  1.20091E+02  3.041E+00  5.450E+00  1.226E-03  3.224E-04  3.220E-04
   1    4   78     1    78    1.5962E+01  1.0662E-03   1.5961E+01  0.000E+00  0.000E+00  0.000E+00  1.19791E+02  3.041E+00  5.450E+00  1.226E-03  0.000E+00  0.000E+00
   1    4   79     1    79    1.5961E+01  8.5289E-04   1.5960E+01  0.000E+00  0.000E+00  0.000E+00  1.19491E+02  3.041E+00  5.450E+00  1.226E-03  0.000E+00  0.000E+00
   1    4   80     1    80    1.5960E+01  6.4366E-04   1.5959E+01  0.000E+00  0.000E+00  0.000E+00  1.19190E+02  3.040E+00  5.450E+00  1.226E-03  0.000E+00  0.000E+00
   1    4   81     1    81    1.5959E+01  4.3756E-04   1.5959E+01  0.000E+00  0.000E+00  0.000E+00  1.18890E+02  3.040E+00  5.450E+00  1.226E-03  0.000E+00  0.000E+00
   1    4   82     1    82    1.5959E+01  2.3438E-04   1.5958E+01  0.000E+00  0.000E+00  0.000E+00  1.18590E+02  3.040E+00  5.450E+00  1.226E-03  0.000E+00  0.000E+00
   1    4   83     1    83    1.5958E+01  3.3172E-05   1.5958E+01  0.000E+00  0.000E+00  0.000E+00  1.18290E+02  3.040E+00  5.450E+00  1.226E-03  0.000E+00  0.000E+00
   1    4   84     1    84    1.5958E+01 -1.6786E-04   1.5959E+01  0.000E+00  0.000E+00  0.000E+00  1.17990E+02  3.040E+00  5.450E+00  1.226E-03  0.000E+00  0.000E+00
   1    4   85     1    85    1.5959E+01 -3.6967E-04   1.5959E+01  0.000E+00  0.000E+00  0.000E+00  1.17690E+02  3.040E+00  5.450E+00  1.226E-03  0.000E+00  0.000E+00
   1    4   86     1    86    1.5959E+01 -5.7248E-04   1.5960E+01  0.000E+00  0.000E+00  0.000E+00  1.17390E+02  3.040E+00  5.450E+00  1.226E-03  0.000E+00  0.000E+00
   1    4   87     1    87    1.5960E+01 -7.7732E-04   1.5960E+01  0.000E+00  0.000E+00  0.000E+00  1.17090E+02  3.040E+00  5.450E+00  1.226E-03  0.000E+00  0.000E+00
   1    4   88     1    88    1.5960E+01 -9.8599E-04   1.5961E+01  0.000E+00  0.000E+00  0.000E+00  1.16791E+02  3.041E+00  5.450E+00  1.226E-03  0.000E+00  0.000E+00
   1    4   89     1    89    1.5961E+01 -1.1995E-03   1.5962E+01  0.000E+00  0.000E+00  0.000E+00  1.16491E+02  3.041E+00  5.450E+00  1.226E-03  0.000E+00  0.000E+00
   1    4   90     1    90    1.5962E+01 -1.4182E-03   1.5964E+01  0.000E+00  0.000E+00  0.000E+00  1.16191E+02  3.041E+00  5.451E+00  1.226E-03  0.000E+00  0.000E+00
   1    4   91     1    91    1.5964E+01 -1.6433E-03   1.5966E+01  0.000E+00  0.000E+00  0.000E+00  1.15891E+02  3.041E+00  5.451E+00  1.226E-03  0.000E+00  0.000E+00
   1    4   92     1    92    1.5966E+01 -1.8766E-03   1.5967E+01  0.000E+00  0.000E+00  0.000E+00  1.15591E+02  3.041E+00  5.451E+00  1.226E-03  0.000E+00  0.000E+00
   1    4   93     1    93    1.5967E+01 -2.1192E-03   1.5970E+01  0.000E+00  0.000E+00  0.000E+00  1.15291E+02  3.041E+00  5.451E+00  1.226E-03  0.000E+00  0.000E+00
   1    4   94     1    94    1.5970E+01 -2.3718E-03   1.5972E+01  0.000E+00  0.000E+00  0.000E+00  1.14992E+02  3.042E+00  5.451E+00  1.226E-03  0.000E+00  0.000E+00
   1    4   95     1    95    1.5972E+01 -2.6359E-03   1.5975E+01  0.000E+00  0.000E+00  0.000E+00  1.14692E+02  3.042E+00  5.452E+00  1.226E-03  0.000E+00  0.000E+00
   1    4   96     1    96    1.5975E+01 -2.9132E-03   1.5977E+01  0.000E+00  0.000E+00  0.000E+00  1.14392E+02  3.042E+00  5.452E+00  1.226E-03  0.000E+00  0.000E+00
   1    4   97     1    97    1.5977E+01 -3.2053E-03   1.5981E+01  0.000E+00  0.000E+00  0.000E+00  1.14092E+02  3.042E+00  5.452E+00  1.226E-03  0.000E+00  0.000E+00
   1    4   98     1    98    1.5981E+01 -3.5132E-03   1.5984E+01  0.000E+00  0.000E+00  0.000E+00  1.13793E+02  3.043E+00  5.453E+00  1.227E-03  0.000E+00  0.000E+00
   1    4   99     1    99    1.5984E+01 -3.8388E-03   1.5988E+01  0.000E+00  0.000E+00  0.000E+00  1.13493E+02  3.043E+00  5.453E+00  1.227E-03  0.000E+00  0.000E+00
   1    4  100     1   100    1.5988E+01 -4.1842E-03   1.5992E+01  0.000E+00  0.000E+00  0.000E+00  1.13193E+02  3.043E+00  5.454E+00  1.227E-03  0.000E+00  0.000E+00



1
  VOLUMETRIC BUDGET FOR UNSATURATED ZONE BENEATH STREAMS AT END OF TIME STEP    30 STRESS PERIOD   9
  ------------------------------------------------------------------------------------------------

    CUMULATIVE VOLUMES             L**3    RATES FOR THIS TIME STEP         L**3/T
    ------------------                     ------------------------


          STREAM LOSS =      9464934.0000            STREAM LOSS =            0.2933
    CHANGE IN STORAGE =       317701.2500      CHANGE IN STORAGE =           -0.1008
       RECHARGE TO GW =      9149791.0000         RECHARGE TO GW =            0.3942

             TOTAL IN =      9464934.0000               TOTAL IN =            0.3942

            TOTAL OUT =      9467492.0000              TOTAL OUT =            0.3942

             IN - OUT =        -2558.0000               IN - OUT =        2.9802E-08

  PERCENT DISCREPANCY =           -0.01      PERCENT DISCREPANCY =             0.00



1
  VOLUMETRIC BUDGET FOR ENTIRE MODEL AT END OF TIME STEP   30, STRESS PERIOD   9
  ------------------------------------------------------------------------------

     CUMULATIVE VOLUMES      L**3       RATES FOR THIS TIME STEP      L**3/T
     ------------------                 ------------------------

           IN:                                      IN:
           ---                                      ---
             STORAGE =      282360.6562               STORAGE =           0.0000
       CONSTANT HEAD =           0.0000         CONSTANT HEAD =           0.0000
     HEAD DEP BOUNDS =     8456100.0000       HEAD DEP BOUNDS =       9.7581E-02
      STREAM LEAKAGE =     9685648.0000        STREAM LEAKAGE =           0.4224

            TOTAL IN =    18424108.0000              TOTAL IN =           0.5200

          OUT:                                     OUT:
          ----                                     ----
             STORAGE =    18063616.0000               STORAGE =           0.4861
       CONSTANT HEAD =           0.0000         CONSTANT HEAD =           0.0000
     HEAD DEP BOUNDS =           0.0000       HEAD DEP BOUNDS =           0.0000
      STREAM LEAKAGE =      360832.7188        STREAM LEAKAGE =       3.3793E-02

           TOTAL OUT =    18424448.0000             TOTAL OUT =           0.5199

            IN - OUT =        -340.0000              IN - OUT =       7.5758E-05

 PERCENT DISCREPANCY =          -0.00     PERCENT DISCREPANCY =           0.01






         TIME SUMMARY AT END OF TIME STEP   30 IN STRESS PERIOD    9
                    SECONDS     MINUTES      HOURS       DAYS        YEARS
                    -----------------------------------------------------------
   TIME STEP LENGTH 2.49961E+05  4166.0      69.434      2.8931     7.92080E-03
 STRESS PERIOD TIME 2.59200E+06  43200.      720.00      30.000     8.21355E-02
         TOTAL TIME 2.33280E+07 3.88800E+05  6480.0      270.00     0.73922    
1
1
                            STRESS PERIOD NO.   10, LENGTH =   2592000.    
                            -----------------------------------------------

                              NUMBER OF TIME STEPS =    30

                               MULTIPLIER FOR DELT =     1.100

                            INITIAL TIME STEP SIZE =   15757.40    

 REUSING NON-PARAMETER GHB CELLS FROM LAST STRESS PERIOD

      7 GHB CELLS



 CLASSIFICATION & COUNT OF STREAM SEGMENTS BASED ON SOURCE OF INFLOW:

                HEADWATER     DIVERSION     RECEIVES TRIBUTARY FLOW
                ---------     ---------     -----------------------
                     1              0               0



                    INPUT DATA FOR EACH STREAM SEGMENT
 ---------------------------------------------------------------------------------------------

 SEGMENT    SEG.     INFLOW   OVERLAND   STREAM    STREAM   ICALC  OUTFLOW  DIVERSION PRIORITY
    NO.    LENGTH     RATE     RUNOFF      ET       PPT.    METH.  TO SEG.  FROM SEG.    NO.

      1  2.000E+04 1.134E+01 0.000E+00 0.000E+00 0.000E+00    2        0        0        0


         STREAMBED PROPERTIES AND STREAM DIMENSIONS

 SEGMENT     BED HYD. COND.      BED THICKNESS     ELEV.-TOP OF BED     WIDTH OF STREAM     DEPTH OF STREAM    STREAM ROUGHNESS
    No.     UPPER     LOWER     UPPER     LOWER     UPPER     LOWER     UPPER     LOWER     UPPER     LOWER   CHANNEL      BANK

     1  3.500E-07 3.500E-07                                                                                 3.000E-02 4.000E-02

  EIGHT POINT CROSS-SECTION DATA FOR SEGMENTS WITH ICALC = 2
    X VALUES X VALUES START FROM LEFT SIDE LOOKING DOWNSTREAM

     SEGMENT NO.        X1        X2        X3        X4        X5        X6        X7        X8
            1      0.000E+00 2.000E+00 4.000E+00 6.000E+00 8.000E+00 1.000E+01 1.200E+01 1.400E+01

    Z VALUES ARE RELATIVE TO STREAMBED ELEVATION

     SEGMENT NO.          Z1        Z2        Z3        Z4        Z5        Z6        Z7        Z8
            1      6.000E+00 4.500E+00 3.500E+00 0.000E+00 3.000E-01 3.500E+00 4.500E+00 6.000E+00




 SOLVING FOR HEAD 

 NO OUTPUT CONTROL FOR STRESS PERIOD   10   TIME STEP    1

 SOLVING FOR HEAD 

 NO OUTPUT CONTROL FOR STRESS PERIOD   10   TIME STEP    2

 SOLVING FOR HEAD 

 NO OUTPUT CONTROL FOR STRESS PERIOD   10   TIME STEP    3

 SOLVING FOR HEAD 

 NO OUTPUT CONTROL FOR STRESS PERIOD   10   TIME STEP    4

 SOLVING FOR HEAD 

 NO OUTPUT CONTROL FOR STRESS PERIOD   10   TIME STEP    5

 SOLVING FOR HEAD 

 NO OUTPUT CONTROL FOR STRESS PERIOD   10   TIME STEP    6

 SOLVING FOR HEAD 

 NO OUTPUT CONTROL FOR STRESS PERIOD   10   TIME STEP    7

 SOLVING FOR HEAD 

 NO OUTPUT CONTROL FOR STRESS PERIOD   10   TIME STEP    8

 SOLVING FOR HEAD 

 NO OUTPUT CONTROL FOR STRESS PERIOD   10   TIME STEP    9

 SOLVING FOR HEAD 

 NO OUTPUT CONTROL FOR STRESS PERIOD   10   TIME STEP   10

 SOLVING FOR HEAD 

 NO OUTPUT CONTROL FOR STRESS PERIOD   10   TIME STEP   11

 SOLVING FOR HEAD 

 NO OUTPUT CONTROL FOR STRESS PERIOD   10   TIME STEP   12

 SOLVING FOR HEAD 

 NO OUTPUT CONTROL FOR STRESS PERIOD   10   TIME STEP   13

 SOLVING FOR HEAD 

 NO OUTPUT CONTROL FOR STRESS PERIOD   10   TIME STEP   14

 SOLVING FOR HEAD 

 NO OUTPUT CONTROL FOR STRESS PERIOD   10   TIME STEP   15

 SOLVING FOR HEAD 

 NO OUTPUT CONTROL FOR STRESS PERIOD   10   TIME STEP   16

 SOLVING FOR HEAD 

 NO OUTPUT CONTROL FOR STRESS PERIOD   10   TIME STEP   17

 SOLVING FOR HEAD 

 NO OUTPUT CONTROL FOR STRESS PERIOD   10   TIME STEP   18

 SOLVING FOR HEAD 

 NO OUTPUT CONTROL FOR STRESS PERIOD   10   TIME STEP   19

 SOLVING FOR HEAD 

 NO OUTPUT CONTROL FOR STRESS PERIOD   10   TIME STEP   20

 SOLVING FOR HEAD 

 NO OUTPUT CONTROL FOR STRESS PERIOD   10   TIME STEP   21

 SOLVING FOR HEAD 

 NO OUTPUT CONTROL FOR STRESS PERIOD   10   TIME STEP   22

 SOLVING FOR HEAD 

 NO OUTPUT CONTROL FOR STRESS PERIOD   10   TIME STEP   23

 SOLVING FOR HEAD 

 NO OUTPUT CONTROL FOR STRESS PERIOD   10   TIME STEP   24

 SOLVING FOR HEAD 

 NO OUTPUT CONTROL FOR STRESS PERIOD   10   TIME STEP   25

 SOLVING FOR HEAD 

 NO OUTPUT CONTROL FOR STRESS PERIOD   10   TIME STEP   26

 SOLVING FOR HEAD 

 NO OUTPUT CONTROL FOR STRESS PERIOD   10   TIME STEP   27

 SOLVING FOR HEAD 

 NO OUTPUT CONTROL FOR STRESS PERIOD   10   TIME STEP   28

 SOLVING FOR HEAD 

 NO OUTPUT CONTROL FOR STRESS PERIOD   10   TIME STEP   29

 SOLVING FOR HEAD 

 OUTPUT CONTROL FOR STRESS PERIOD   10   TIME STEP   30
    PRINT HEAD FOR ALL LAYERS
    PRINT BUDGET
    SAVE BUDGET

  HEAD DEP BOUNDS   PERIOD   10   STEP  30
 BOUNDARY      1   LAYER   1   ROW     1   COL     1   RATE    1.478144E-02
 BOUNDARY      2   LAYER   1   ROW     2   COL     1   RATE    1.468251E-02
 BOUNDARY      3   LAYER   1   ROW     3   COL     1   RATE    1.411500E-02
 BOUNDARY      4   LAYER   1   ROW     4   COL     1   RATE    7.059359E-03
 BOUNDARY      5   LAYER   1   ROW     5   COL     1   RATE    1.411500E-02
 BOUNDARY      6   LAYER   1   ROW     6   COL     1   RATE    1.468251E-02
 BOUNDARY      7   LAYER   1   ROW     7   COL     1   RATE    1.478144E-02



 STREAM LISTING     PERIOD     10   STEP       30

 LAYER ROW COL. STREAM  RCH.   FLOW INTO    STREAM     FLOW OUT OF   OVRLND.    DIRECT     STREAM      STREAM      STREAM     STREAM  STREAMBED   FLOW TO   CHNG. UNSAT. 
                SEG.NO.  NO.   STRM. RCH.    LOSS       STRM. RCH.   RUNOFF     PRECIP       ET         HEAD        DEPTH      WIDTH  CONDCTNC.   WAT. TAB.

   1    4    1     1     1    1.1340E+01  3.2798E-03   1.1337E+01  0.000E+00  0.000E+00  0.000E+00  1.42414E+02  2.564E+00  4.880E+00  1.070E-03  3.388E-03 -1.081E-04
   1    4    2     1     2    1.1337E+01  3.2791E-03   1.1333E+01  0.000E+00  0.000E+00  0.000E+00  1.42114E+02  2.564E+00  4.880E+00  1.070E-03  3.390E-03 -1.105E-04
   1    4    3     1     3    1.1333E+01  3.2783E-03   1.1330E+01  0.000E+00  0.000E+00  0.000E+00  1.41813E+02  2.563E+00  4.879E+00  1.070E-03  3.391E-03 -1.131E-04
   1    4    4     1     4    1.1330E+01  3.2775E-03   1.1327E+01  0.000E+00  0.000E+00  0.000E+00  1.41513E+02  2.563E+00  4.879E+00  1.070E-03  3.393E-03 -1.158E-04
   1    4    5     1     5    1.1327E+01  3.2768E-03   1.1324E+01  0.000E+00  0.000E+00  0.000E+00  1.41213E+02  2.563E+00  4.879E+00  1.070E-03  3.395E-03 -1.187E-04
   1    4    6     1     6    1.1324E+01  3.2760E-03   1.1320E+01  0.000E+00  0.000E+00  0.000E+00  1.40912E+02  2.562E+00  4.878E+00  1.070E-03  3.398E-03 -1.219E-04
   1    4    7     1     7    1.1320E+01  3.2752E-03   1.1317E+01  0.000E+00  0.000E+00  0.000E+00  1.40612E+02  2.562E+00  4.878E+00  1.070E-03  3.400E-03 -1.252E-04
   1    4    8     1     8    1.1317E+01  3.2744E-03   1.1314E+01  0.000E+00  0.000E+00  0.000E+00  1.40312E+02  2.562E+00  4.877E+00  1.070E-03  3.403E-03 -1.287E-04
   1    4    9     1     9    1.1314E+01  3.2737E-03   1.1311E+01  0.000E+00  0.000E+00  0.000E+00  1.40011E+02  2.561E+00  4.877E+00  1.069E-03  3.406E-03 -1.325E-04
   1    4   10     1    10    1.1311E+01  3.2729E-03   1.1307E+01  0.000E+00  0.000E+00  0.000E+00  1.39711E+02  2.561E+00  4.876E+00  1.069E-03  3.409E-03 -1.365E-04
   1    4   11     1    11    1.1307E+01  3.2721E-03   1.1304E+01  0.000E+00  0.000E+00  0.000E+00  1.39410E+02  2.560E+00  4.876E+00  1.069E-03  3.413E-03 -1.407E-04
   1    4   12     1    12    1.1304E+01  3.2714E-03   1.1301E+01  0.000E+00  0.000E+00  0.000E+00  1.39110E+02  2.560E+00  4.875E+00  1.069E-03  3.427E-03 -1.561E-04
   1    4   13     1    13    1.1301E+01  3.2706E-03   1.1297E+01  0.000E+00  0.000E+00  0.000E+00  1.38810E+02  2.560E+00  4.875E+00  1.069E-03  3.436E-03 -1.658E-04
   1    4   14     1    14    1.1297E+01  3.2698E-03   1.1294E+01  0.000E+00  0.000E+00  0.000E+00  1.38509E+02  2.559E+00  4.875E+00  1.069E-03  3.445E-03 -1.757E-04
   1    4   15     1    15    1.1294E+01  3.2690E-03   1.1291E+01  0.000E+00  0.000E+00  0.000E+00  1.38209E+02  2.559E+00  4.874E+00  1.069E-03  3.464E-03 -1.948E-04
   1    4   16     1    16    1.1291E+01  3.2683E-03   1.1288E+01  0.000E+00  0.000E+00  0.000E+00  1.37909E+02  2.559E+00  4.874E+00  1.069E-03  3.480E-03 -2.121E-04
   1    4   17     1    17    1.1288E+01  3.2675E-03   1.1284E+01  0.000E+00  0.000E+00  0.000E+00  1.37608E+02  2.558E+00  4.873E+00  1.068E-03  3.497E-03 -2.291E-04
   1    4   18     1    18    1.1284E+01  3.2667E-03   1.1281E+01  0.000E+00  0.000E+00  0.000E+00  1.37308E+02  2.558E+00  4.873E+00  1.068E-03  3.512E-03 -2.457E-04
   1    4   19     1    19    1.1281E+01  3.2660E-03   1.1278E+01  0.000E+00  0.000E+00  0.000E+00  1.37007E+02  2.557E+00  4.872E+00  1.068E-03  3.526E-03 -2.618E-04
   1    4   20     1    20    1.1278E+01  3.2652E-03   1.1275E+01  0.000E+00  0.000E+00  0.000E+00  1.36707E+02  2.557E+00  4.872E+00  1.068E-03  3.534E-03 -2.688E-04
   1    4   21     1    21    1.1275E+01  3.2644E-03   1.1271E+01  0.000E+00  0.000E+00  0.000E+00  1.36407E+02  2.557E+00  4.871E+00  1.068E-03  3.542E-03 -2.774E-04
   1    4   22     1    22    1.1271E+01  3.2637E-03   1.1268E+01  0.000E+00  0.000E+00  0.000E+00  1.36106E+02  2.556E+00  4.871E+00  1.068E-03  3.549E-03 -2.855E-04
   1    4   23     1    23    1.1268E+01  3.2629E-03   1.1265E+01  0.000E+00  0.000E+00  0.000E+00  1.35806E+02  2.556E+00  4.871E+00  1.068E-03  3.556E-03 -2.932E-04
   1    4   24     1    24    1.1265E+01  3.2621E-03   1.1261E+01  0.000E+00  0.000E+00  0.000E+00  1.35506E+02  2.556E+00  4.870E+00  1.068E-03  3.561E-03 -3.004E-04
   1    4   25     1    25    1.1261E+01  3.2614E-03   1.1258E+01  0.000E+00  0.000E+00  0.000E+00  1.35205E+02  2.555E+00  4.870E+00  1.067E-03  3.565E-03 -3.071E-04
   1    4   26     1    26    1.1258E+01  3.2606E-03   1.1255E+01  0.000E+00  0.000E+00  0.000E+00  1.34905E+02  2.555E+00  4.869E+00  1.067E-03  3.568E-03 -3.078E-04
   1    4   27     1    27    1.1255E+01  3.2598E-03   1.1252E+01  0.000E+00  0.000E+00  0.000E+00  1.34604E+02  2.554E+00  4.869E+00  1.067E-03  3.572E-03 -3.122E-04
   1    4   28     1    28    1.1252E+01  3.2591E-03   1.1248E+01  0.000E+00  0.000E+00  0.000E+00  1.34304E+02  2.554E+00  4.868E+00  1.067E-03  3.576E-03 -3.165E-04
   1    4   29     1    29    1.1248E+01  3.2583E-03   1.1245E+01  0.000E+00  0.000E+00  0.000E+00  1.34004E+02  2.554E+00  4.868E+00  1.067E-03  3.579E-03 -3.209E-04
   1    4   30     1    30    1.1245E+01  3.2575E-03   1.1242E+01  0.000E+00  0.000E+00  0.000E+00  1.33703E+02  2.553E+00  4.867E+00  1.067E-03  3.583E-03 -3.254E-04
   1    4   31     1    31    1.1242E+01  3.2567E-03   1.1239E+01  0.000E+00  0.000E+00  0.000E+00  1.33403E+02  2.553E+00  4.867E+00  1.067E-03  3.587E-03 -3.300E-04
   1    4   32     1    32    1.1239E+01  3.2560E-03   1.1235E+01  0.000E+00  0.000E+00  0.000E+00  1.33103E+02  2.553E+00  4.867E+00  1.067E-03  3.591E-03 -3.348E-04
   1    4   33     1    33    1.1235E+01  3.2552E-03   1.1232E+01  0.000E+00  0.000E+00  0.000E+00  1.32802E+02  2.552E+00  4.866E+00  1.067E-03  3.595E-03 -3.394E-04
   1    4   34     1    34    1.1232E+01  3.2544E-03   1.1229E+01  0.000E+00  0.000E+00  0.000E+00  1.32502E+02  2.552E+00  4.866E+00  1.066E-03  3.595E-03 -3.408E-04
   1    4   35     1    35    1.1229E+01  3.2537E-03   1.1226E+01  0.000E+00  0.000E+00  0.000E+00  1.32201E+02  2.551E+00  4.865E+00  1.066E-03  3.595E-03 -3.417E-04
   1    4   36     1    36    1.1226E+01  3.2529E-03   1.1222E+01  0.000E+00  0.000E+00  0.000E+00  1.31901E+02  2.551E+00  4.865E+00  1.066E-03  3.595E-03 -3.423E-04
   1    4   37     1    37    1.1222E+01  3.2521E-03   1.1219E+01  0.000E+00  0.000E+00  0.000E+00  1.31601E+02  2.551E+00  4.864E+00  1.066E-03  3.595E-03 -3.426E-04
   1    4   38     1    38    1.1219E+01  3.2514E-03   1.1216E+01  0.000E+00  0.000E+00  0.000E+00  1.31300E+02  2.550E+00  4.864E+00  1.066E-03  3.594E-03 -3.425E-04
   1    4   39     1    39    1.1216E+01  3.2506E-03   1.1213E+01  0.000E+00  0.000E+00  0.000E+00  1.31000E+02  2.550E+00  4.863E+00  1.066E-03  3.592E-03 -3.417E-04
   1    4   40     1    40    1.1213E+01  3.2498E-03   1.1209E+01  0.000E+00  0.000E+00  0.000E+00  1.30700E+02  2.550E+00  4.863E+00  1.066E-03  3.581E-03 -3.314E-04
   1    4   41     1    41    1.1209E+01  3.2491E-03   1.1206E+01  0.000E+00  0.000E+00  0.000E+00  1.30399E+02  2.549E+00  4.863E+00  1.066E-03  3.561E-03 -3.114E-04
   1    4   42     1    42    1.1206E+01  3.2483E-03   1.1203E+01  0.000E+00  0.000E+00  0.000E+00  1.30099E+02  2.549E+00  4.862E+00  1.065E-03  3.538E-03 -2.901E-04
   1    4   43     1    43    1.1203E+01  3.2475E-03   1.1200E+01  0.000E+00  0.000E+00  0.000E+00  1.29799E+02  2.549E+00  4.862E+00  1.065E-03  3.509E-03 -2.611E-04
   1    4   44     1    44    1.1200E+01  3.2468E-03   1.1196E+01  0.000E+00  0.000E+00  0.000E+00  1.29498E+02  2.548E+00  4.861E+00  1.065E-03  3.422E-03 -1.752E-04
   1    4   45     1    45    1.1196E+01  3.2460E-03   1.1193E+01  0.000E+00  0.000E+00  0.000E+00  1.29198E+02  2.548E+00  4.861E+00  1.065E-03  3.205E-03  4.122E-05
   1    4   46     1    46    1.1193E+01  3.2453E-03   1.1190E+01  0.000E+00  0.000E+00  0.000E+00  1.28897E+02  2.547E+00  4.860E+00  1.065E-03  2.779E-03  4.665E-04
   1    4   47     1    47    1.1190E+01  3.2445E-03   1.1187E+01  0.000E+00  0.000E+00  0.000E+00  1.28597E+02  2.547E+00  4.860E+00  1.065E-03  2.417E-03  8.277E-04
   1    4   48     1    48    1.1187E+01  3.2437E-03   1.1183E+01  0.000E+00  0.000E+00  0.000E+00  1.28297E+02  2.547E+00  4.859E+00  1.065E-03  2.064E-03  1.180E-03
   1    4   49     1    49    1.1183E+01  3.2430E-03   1.1180E+01  0.000E+00  0.000E+00  0.000E+00  1.27996E+02  2.546E+00  4.859E+00  1.065E-03  1.722E-03  1.521E-03
   1    4   50     1    50    1.1180E+01  3.2422E-03   1.1177E+01  0.000E+00  0.000E+00  0.000E+00  1.27696E+02  2.546E+00  4.859E+00  1.064E-03  1.392E-03  1.850E-03
   1    4   51     1    51    1.1177E+01  3.2414E-03   1.1174E+01  0.000E+00  0.000E+00  0.000E+00  1.27396E+02  2.546E+00  4.858E+00  1.064E-03  1.078E-03  2.164E-03
   1    4   52     1    52    1.1174E+01  3.2407E-03   1.1170E+01  0.000E+00  0.000E+00  0.000E+00  1.27095E+02  2.545E+00  4.858E+00  1.064E-03  7.794E-04  2.461E-03
   1    4   53     1    53    1.1170E+01  3.2399E-03   1.1167E+01  0.000E+00  0.000E+00  0.000E+00  1.26795E+02  2.545E+00  4.857E+00  1.064E-03  5.006E-04  2.739E-03
   1    4   54     1    54    1.1167E+01  3.2391E-03   1.1164E+01  0.000E+00  0.000E+00  0.000E+00  1.26494E+02  2.544E+00  4.857E+00  1.064E-03  2.873E-04  2.952E-03
   1    4   55     1    55    1.1164E+01  3.2384E-03   1.1161E+01  0.000E+00  0.000E+00  0.000E+00  1.26194E+02  2.544E+00  4.856E+00  1.064E-03  1.117E-04  3.127E-03
   1    4   56     1    56    1.1161E+01  3.2376E-03   1.1158E+01  0.000E+00  0.000E+00  0.000E+00  1.25894E+02  2.544E+00  4.856E+00  1.064E-03  0.000E+00  3.238E-03
   1    4   57     1    57    1.1158E+01  3.2368E-03   1.1154E+01  0.000E+00  0.000E+00  0.000E+00  1.25593E+02  2.543E+00  4.855E+00  1.064E-03  0.000E+00  3.237E-03
   1    4   58     1    58    1.1154E+01  3.2361E-03   1.1151E+01  0.000E+00  0.000E+00  0.000E+00  1.25293E+02  2.543E+00  4.855E+00  1.063E-03  0.000E+00  3.236E-03
   1    4   59     1    59    1.1151E+01  3.2353E-03   1.1148E+01  0.000E+00  0.000E+00  0.000E+00  1.24993E+02  2.543E+00  4.855E+00  1.063E-03  0.000E+00  3.235E-03
   1    4   60     1    60    1.1148E+01  3.2346E-03   1.1145E+01  0.000E+00  0.000E+00  0.000E+00  1.24692E+02  2.542E+00  4.854E+00  1.063E-03  0.000E+00  3.235E-03
   1    4   61     1    61    1.1145E+01  3.2338E-03   1.1141E+01  0.000E+00  0.000E+00  0.000E+00  1.24392E+02  2.542E+00  4.854E+00  1.063E-03  0.000E+00  3.234E-03
   1    4   62     1    62    1.1141E+01  3.2330E-03   1.1138E+01  0.000E+00  0.000E+00  0.000E+00  1.24091E+02  2.541E+00  4.853E+00  1.063E-03  0.000E+00  3.233E-03
   1    4   63     1    63    1.1138E+01  3.2323E-03   1.1135E+01  0.000E+00  0.000E+00  0.000E+00  1.23791E+02  2.541E+00  4.853E+00  1.063E-03  0.000E+00  3.232E-03
   1    4   64     1    64    1.1135E+01  3.2315E-03   1.1132E+01  0.000E+00  0.000E+00  0.000E+00  1.23491E+02  2.541E+00  4.852E+00  1.063E-03  0.000E+00  3.231E-03
   1    4   65     1    65    1.1132E+01  3.2307E-03   1.1128E+01  0.000E+00  0.000E+00  0.000E+00  1.23190E+02  2.540E+00  4.852E+00  1.063E-03  0.000E+00  3.231E-03
   1    4   66     1    66    1.1128E+01  3.1814E-03   1.1125E+01  0.000E+00  0.000E+00  0.000E+00  1.22890E+02  2.540E+00  4.851E+00  1.063E-03  0.000E+00  3.181E-03
   1    4   67     1    67    1.1125E+01  3.2292E-03   1.1122E+01  0.000E+00  0.000E+00  0.000E+00  1.22590E+02  2.540E+00  4.851E+00  1.062E-03  0.000E+00  3.229E-03
   1    4   68     1    68    1.1122E+01  3.2285E-03   1.1119E+01  0.000E+00  0.000E+00  0.000E+00  1.22289E+02  2.539E+00  4.851E+00  1.062E-03  0.000E+00  3.228E-03
   1    4   69     1    69    1.1119E+01  3.2277E-03   1.1116E+01  0.000E+00  0.000E+00  0.000E+00  1.21989E+02  2.539E+00  4.850E+00  1.062E-03  2.451E-04  2.983E-03
   1    4   70     1    70    1.1116E+01  3.2269E-03   1.1112E+01  0.000E+00  0.000E+00  0.000E+00  1.21688E+02  2.538E+00  4.850E+00  1.062E-03  5.053E-04  2.722E-03
   1    4   71     1    71    1.1112E+01  3.2262E-03   1.1109E+01  0.000E+00  0.000E+00  0.000E+00  1.21388E+02  2.538E+00  4.849E+00  1.062E-03  7.644E-04  2.462E-03
   1    4   72     1    72    1.1109E+01  3.2254E-03   1.1106E+01  0.000E+00  0.000E+00  0.000E+00  1.21088E+02  2.538E+00  4.849E+00  1.062E-03  1.069E-03  2.156E-03
   1    4   73     1    73    1.1106E+01  3.2247E-03   1.1103E+01  0.000E+00  0.000E+00  0.000E+00  1.20787E+02  2.537E+00  4.848E+00  1.062E-03  1.404E-03  1.821E-03
   1    4   74     1    74    1.1103E+01  3.2239E-03   1.1099E+01  0.000E+00  0.000E+00  0.000E+00  1.20487E+02  2.537E+00  4.848E+00  1.062E-03  1.734E-03  1.490E-03
   1    4   75     1    75    1.1099E+01  3.2231E-03   1.1096E+01  0.000E+00  0.000E+00  0.000E+00  1.20187E+02  2.537E+00  4.847E+00  1.061E-03  2.059E-03  1.164E-03
   1    4   76     1    76    1.1096E+01  3.2224E-03   1.1093E+01  0.000E+00  0.000E+00  0.000E+00  1.19886E+02  2.536E+00  4.847E+00  1.061E-03  2.376E-03  8.468E-04
   1    4   77     1    77    1.1093E+01  3.2216E-03   1.1090E+01  0.000E+00  0.000E+00  0.000E+00  1.19586E+02  2.536E+00  4.847E+00  1.061E-03  2.684E-03  5.377E-04
   1    4   78     1    78    1.1090E+01  3.2208E-03   1.1087E+01  0.000E+00  0.000E+00  0.000E+00  1.19286E+02  2.536E+00  4.846E+00  1.061E-03  2.983E-03  2.381E-04
   1    4   79     1    79    1.1087E+01  3.1610E-03   1.1083E+01  0.000E+00  0.000E+00  0.000E+00  1.18985E+02  2.535E+00  4.846E+00  1.061E-03  0.000E+00  0.000E+00
   1    4   80     1    80    1.1083E+01  2.8369E-03   1.1081E+01  0.000E+00  0.000E+00  0.000E+00  1.18685E+02  2.535E+00  4.845E+00  1.061E-03  0.000E+00  0.000E+00
   1    4   81     1    81    1.1081E+01  2.5250E-03   1.1078E+01  0.000E+00  0.000E+00  0.000E+00  1.18385E+02  2.535E+00  4.845E+00  1.061E-03  0.000E+00  0.000E+00
   1    4   82     1    82    1.1078E+01  2.2238E-03   1.1076E+01  0.000E+00  0.000E+00  0.000E+00  1.18084E+02  2.534E+00  4.845E+00  1.061E-03  0.000E+00  0.000E+00
   1    4   83     1    83    1.1076E+01  1.9323E-03   1.1074E+01  0.000E+00  0.000E+00  0.000E+00  1.17784E+02  2.534E+00  4.844E+00  1.061E-03  0.000E+00  0.000E+00
   1    4   84     1    84    1.1074E+01  1.6491E-03   1.1072E+01  0.000E+00  0.000E+00  0.000E+00  1.17484E+02  2.534E+00  4.844E+00  1.060E-03  0.000E+00  0.000E+00
   1    4   85     1    85    1.1072E+01  1.3730E-03   1.1071E+01  0.000E+00  0.000E+00  0.000E+00  1.17184E+02  2.534E+00  4.844E+00  1.060E-03  0.000E+00  0.000E+00
   1    4   86     1    86    1.1071E+01  1.1029E-03   1.1070E+01  0.000E+00  0.000E+00  0.000E+00  1.16883E+02  2.533E+00  4.844E+00  1.060E-03  0.000E+00  0.000E+00
   1    4   87     1    87    1.1070E+01  8.3790E-04   1.1069E+01  0.000E+00  0.000E+00  0.000E+00  1.16583E+02  2.533E+00  4.843E+00  1.060E-03  0.000E+00  0.000E+00
   1    4   88     1    88    1.1069E+01  5.7653E-04   1.1068E+01  0.000E+00  0.000E+00  0.000E+00  1.16283E+02  2.533E+00  4.843E+00  1.060E-03  0.000E+00  0.000E+00
   1    4   89     1    89    1.1068E+01  3.1766E-04   1.1068E+01  0.000E+00  0.000E+00  0.000E+00  1.15983E+02  2.533E+00  4.843E+00  1.060E-03  0.000E+00  0.000E+00
   1    4   90     1    90    1.1068E+01  6.0498E-05   1.1068E+01  0.000E+00  0.000E+00  0.000E+00  1.15683E+02  2.533E+00  4.843E+00  1.060E-03  0.000E+00  0.000E+00
   1    4   91     1    91    1.1068E+01 -1.9608E-04   1.1068E+01  0.000E+00  0.000E+00  0.000E+00  1.15383E+02  2.533E+00  4.843E+00  1.060E-03  0.000E+00  0.000E+00
   1    4   92     1    92    1.1068E+01 -4.5347E-04   1.1069E+01  0.000E+00  0.000E+00  0.000E+00  1.15083E+02  2.533E+00  4.843E+00  1.060E-03  0.000E+00  0.000E+00
   1    4   93     1    93    1.1069E+01 -7.1280E-04   1.1069E+01  0.000E+00  0.000E+00  0.000E+00  1.14783E+02  2.533E+00  4.843E+00  1.060E-03  0.000E+00  0.000E+00
   1    4   94     1    94    1.1069E+01 -9.7491E-04   1.1070E+01  0.000E+00  0.000E+00  0.000E+00  1.14483E+02  2.533E+00  4.844E+00  1.060E-03  0.000E+00  0.000E+00
   1    4   95     1    95    1.1070E+01 -1.2410E-03   1.1072E+01  0.000E+00  0.000E+00  0.000E+00  1.14184E+02  2.534E+00  4.844E+00  1.060E-03  0.000E+00  0.000E+00
   1    4   96     1    96    1.1072E+01 -1.5125E-03   1.1073E+01  0.000E+00  0.000E+00  0.000E+00  1.13884E+02  2.534E+00  4.844E+00  1.060E-03  0.000E+00  0.000E+00
   1    4   97     1    97    1.1073E+01 -1.7906E-03   1.1075E+01  0.000E+00  0.000E+00  0.000E+00  1.13584E+02  2.534E+00  4.844E+00  1.061E-03  0.000E+00  0.000E+00
   1    4   98     1    98    1.1075E+01 -2.0763E-03   1.1077E+01  0.000E+00  0.000E+00  0.000E+00  1.13284E+02  2.534E+00  4.844E+00  1.061E-03  0.000E+00  0.000E+00
   1    4   99     1    99    1.1077E+01 -2.3712E-03   1.1079E+01  0.000E+00  0.000E+00  0.000E+00  1.12984E+02  2.534E+00  4.845E+00  1.061E-03  0.000E+00  0.000E+00
   1    4  100     1   100    1.1079E+01 -2.6766E-03   1.1082E+01  0.000E+00  0.000E+00  0.000E+00  1.12685E+02  2.535E+00  4.845E+00  1.061E-03  0.000E+00  0.000E+00



1
  VOLUMETRIC BUDGET FOR UNSATURATED ZONE BENEATH STREAMS AT END OF TIME STEP    30 STRESS PERIOD  10
  ------------------------------------------------------------------------------------------------

    CUMULATIVE VOLUMES             L**3    RATES FOR THIS TIME STEP         L**3/T
    ------------------                     ------------------------


          STREAM LOSS =     10095126.0000            STREAM LOSS =            0.2535
    CHANGE IN STORAGE =       254759.7031      CHANGE IN STORAGE =        6.6997E-02
       RECHARGE TO GW =      9842999.0000         RECHARGE TO GW =            0.1865

             TOTAL IN =     10095126.0000               TOTAL IN =            0.2535

            TOTAL OUT =     10097759.0000              TOTAL OUT =            0.2535

             IN - OUT =        -2633.0000               IN - OUT =        7.1228E-06

  PERCENT DISCREPANCY =           -0.01      PERCENT DISCREPANCY =             0.00



1
              HEAD IN LAYER   1 AT END OF TIME STEP  30 IN STRESS PERIOD   10
  ---------------------------------------------------------------------------

          1      2      3      4      5      6      7      8      9     10
         11     12     13     14     15     16     17     18     19     20
         21     22     23     24     25     26     27     28     29     30
         31     32     33     34     35     36     37     38     39     40
         41     42     43     44     45     46     47     48     49     50
         51     52     53     54     55     56     57     58     59     60
         61     62     63     64     65     66     67     68     69     70
         71     72     73     74     75     76     77     78     79     80
         81     82     83     84     85     86     87     88     89     90
         91     92     93     94     95     96     97     98     99    100
 .........................................................................
   1   125.0  124.7  124.3  124.0  123.6  123.2  122.9  122.5  122.1  121.7
       121.3  120.8  120.4  120.0  119.6  119.2  118.8  118.3  117.9  117.5
       117.1  116.7  116.4  116.0  115.6  115.3  115.0  114.7  114.4  114.1
       113.9  113.6  113.4  113.2  113.1  113.0  112.9  112.8  112.8  112.8
       112.9  112.9  113.1  113.2  113.4  113.5  113.7  113.8  113.9  113.9
       114.0  114.1  114.2  114.3  114.3  114.4  114.5  114.6  114.7  114.7
       114.8  114.9  115.0  115.0  115.1  115.2  115.3  115.4  115.4  115.5
       115.6  115.7  115.7  115.8  115.9  115.9  115.9  116.0  116.0  116.0
       116.0  116.0  116.0  115.9  115.9  115.8  115.8  115.7  115.7  115.6
       115.6  115.5  115.5  115.4  115.4  115.3  115.3  115.3  115.2  115.2
   2   125.0  124.7  124.3  124.0  123.6  123.2  122.9  122.5  122.1  121.7
       121.3  120.8  120.4  120.0  119.6  119.2  118.8  118.3  117.9  117.5
       117.1  116.7  116.4  116.0  115.7  115.3  115.0  114.7  114.4  114.1
       113.9  113.6  113.4  113.2  113.1  113.0  112.9  112.8  112.8  112.8
       112.9  112.9  113.1  113.2  113.4  113.5  113.7  113.8  113.9  113.9
       114.0  114.1  114.2  114.3  114.3  114.4  114.5  114.6  114.7  114.7
       114.8  114.9  115.0  115.0  115.1  115.2  115.3  115.4  115.4  115.5
       115.6  115.7  115.7  115.8  115.9  115.9  115.9  116.0  116.0  116.0
       116.0  116.0  116.0  115.9  115.9  115.8  115.8  115.7  115.7  115.6
       115.6  115.5  115.5  115.4  115.4  115.3  115.3  115.2  115.2  115.2
   3   125.0  124.7  124.3  124.0  123.6  123.3  122.9  122.5  122.1  121.7
       121.3  120.9  120.4  120.0  119.6  119.2  118.8  118.4  117.9  117.5
       117.1  116.8  116.4  116.0  115.7  115.3  115.0  114.7  114.4  114.1
       113.9  113.6  113.4  113.3  113.1  113.0  112.9  112.8  112.8  112.8
       112.9  113.0  113.1  113.2  113.4  113.5  113.7  113.8  113.9  113.9
       114.0  114.1  114.2  114.3  114.3  114.4  114.5  114.6  114.7  114.7
       114.8  114.9  115.0  115.0  115.1  115.2  115.3  115.4  115.4  115.5
       115.6  115.7  115.7  115.8  115.9  115.9  116.0  116.0  116.0  116.0
       116.0  116.0  116.0  115.9  115.9  115.8  115.8  115.7  115.7  115.6
       115.6  115.5  115.5  115.4  115.4  115.3  115.3  115.2  115.2  115.2
   4   125.0  124.7  124.3  124.0  123.6  123.3  122.9  122.5  122.1  121.7
       121.3  120.9  120.4  120.0  119.6  119.2  118.8  118.4  117.9  117.5
       117.1  116.8  116.4  116.0  115.7  115.3  115.0  114.7  114.4  114.1
       113.9  113.6  113.4  113.3  113.1  113.0  112.9  112.8  112.8  112.8
       112.9  113.0  113.1  113.3  113.4  113.5  113.7  113.8  113.9  114.0
       114.0  114.1  114.2  114.3  114.4  114.4  114.5  114.6  114.7  114.7
       114.8  114.9  115.0  115.0  115.1  115.2  115.3  115.4  115.4  115.5
       115.6  115.7  115.7  115.8  115.9  115.9  116.0  116.0  116.0  116.0
       116.0  116.0  116.0  115.9  115.9  115.8  115.8  115.7  115.7  115.6
       115.6  115.5  115.5  115.4  115.4  115.3  115.3  115.2  115.2  115.2
   5   125.0  124.7  124.3  124.0  123.6  123.3  122.9  122.5  122.1  121.7
       121.3  120.9  120.4  120.0  119.6  119.2  118.8  118.4  117.9  117.5
       117.1  116.8  116.4  116.0  115.7  115.3  115.0  114.7  114.4  114.1
       113.9  113.6  113.4  113.3  113.1  113.0  112.9  112.8  112.8  112.8
       112.9  113.0  113.1  113.2  113.4  113.5  113.7  113.8  113.9  113.9
       114.0  114.1  114.2  114.3  114.3  114.4  114.5  114.6  114.7  114.7
       114.8  114.9  115.0  115.0  115.1  115.2  115.3  115.4  115.4  115.5
       115.6  115.7  115.7  115.8  115.9  115.9  116.0  116.0  116.0  116.0
       116.0  116.0  116.0  115.9  115.9  115.8  115.8  115.7  115.7  115.6
       115.6  115.5  115.5  115.4  115.4  115.3  115.3  115.2  115.2  115.2
   6   125.0  124.7  124.3  124.0  123.6  123.2  122.9  122.5  122.1  121.7
       121.3  120.8  120.4  120.0  119.6  119.2  118.8  118.3  117.9  117.5
       117.1  116.7  116.4  116.0  115.7  115.3  115.0  114.7  114.4  114.1
       113.9  113.6  113.4  113.2  113.1  113.0  112.9  112.8  112.8  112.8
       112.9  112.9  113.1  113.2  113.4  113.5  113.7  113.8  113.9  113.9
       114.0  114.1  114.2  114.3  114.3  114.4  114.5  114.6  114.7  114.7
       114.8  114.9  115.0  115.0  115.1  115.2  115.3  115.4  115.4  115.5
       115.6  115.7  115.7  115.8  115.9  115.9  115.9  116.0  116.0  116.0
       116.0  116.0  116.0  115.9  115.9  115.8  115.8  115.7  115.7  115.6
       115.6  115.5  115.5  115.4  115.4  115.3  115.3  115.2  115.2  115.2
   7   125.0  124.7  124.3  124.0  123.6  123.2  122.9  122.5  122.1  121.7
       121.3  120.8  120.4  120.0  119.6  119.2  118.8  118.3  117.9  117.5
       117.1  116.7  116.4  116.0  115.6  115.3  115.0  114.7  114.4  114.1
       113.9  113.6  113.4  113.2  113.1  113.0  112.9  112.8  112.8  112.8
       112.9  112.9  113.1  113.2  113.4  113.5  113.7  113.8  113.9  113.9
       114.0  114.1  114.2  114.3  114.3  114.4  114.5  114.6  114.7  114.7
       114.8  114.9  115.0  115.0  115.1  115.2  115.3  115.4  115.4  115.5
       115.6  115.7  115.7  115.8  115.9  115.9  115.9  116.0  116.0  116.0
       116.0  116.0  116.0  115.9  115.9  115.8  115.8  115.7  115.7  115.6
       115.6  115.5  115.5  115.4  115.4  115.3  115.3  115.3  115.2  115.2
1
  VOLUMETRIC BUDGET FOR ENTIRE MODEL AT END OF TIME STEP   30, STRESS PERIOD  10
  ------------------------------------------------------------------------------

     CUMULATIVE VOLUMES      L**3       RATES FOR THIS TIME STEP      L**3/T
     ------------------                 ------------------------

           IN:                                      IN:
           ---                                      ---
             STORAGE =      322780.3438               STORAGE =       1.0263E-02
       CONSTANT HEAD =           0.0000         CONSTANT HEAD =           0.0000
     HEAD DEP BOUNDS =     8706113.0000       HEAD DEP BOUNDS =       9.4217E-02
      STREAM LEAKAGE =    10422589.0000        STREAM LEAKAGE =           0.2051

            TOTAL IN =    19451482.0000              TOTAL IN =           0.3095

          OUT:                                     OUT:
          ----                                     ----
             STORAGE =    19021684.0000               STORAGE =           0.2955
       CONSTANT HEAD =           0.0000         CONSTANT HEAD =           0.0000
     HEAD DEP BOUNDS =           0.0000       HEAD DEP BOUNDS =           0.0000
      STREAM LEAKAGE =      430101.9688        STREAM LEAKAGE =       1.4005E-02

           TOTAL OUT =    19451786.0000             TOTAL OUT =           0.3095

            IN - OUT =        -304.0000              IN - OUT =       4.8727E-05

 PERCENT DISCREPANCY =          -0.00     PERCENT DISCREPANCY =           0.02






         TIME SUMMARY AT END OF TIME STEP   30 IN STRESS PERIOD   10
                    SECONDS     MINUTES      HOURS       DAYS        YEARS
                    -----------------------------------------------------------
   TIME STEP LENGTH 2.49961E+05  4166.0      69.434      2.8931     7.92080E-03
 STRESS PERIOD TIME 2.59200E+06  43200.      720.00      30.000     8.21355E-02
         TOTAL TIME 2.59200E+07 4.32000E+05  7200.0      300.00     0.82136    
1
1
                            STRESS PERIOD NO.   11, LENGTH =   2592000.    
                            -----------------------------------------------

                              NUMBER OF TIME STEPS =    30

                               MULTIPLIER FOR DELT =     1.100

                            INITIAL TIME STEP SIZE =   15757.40    

 REUSING NON-PARAMETER GHB CELLS FROM LAST STRESS PERIOD

      7 GHB CELLS



 CLASSIFICATION & COUNT OF STREAM SEGMENTS BASED ON SOURCE OF INFLOW:

                HEADWATER     DIVERSION     RECEIVES TRIBUTARY FLOW
                ---------     ---------     -----------------------
                     1              0               0



                    INPUT DATA FOR EACH STREAM SEGMENT
 ---------------------------------------------------------------------------------------------

 SEGMENT    SEG.     INFLOW   OVERLAND   STREAM    STREAM   ICALC  OUTFLOW  DIVERSION PRIORITY
    NO.    LENGTH     RATE     RUNOFF      ET       PPT.    METH.  TO SEG.  FROM SEG.    NO.

      1  2.000E+04 3.384E+00 0.000E+00 0.000E+00 0.000E+00    2        0        0        0


         STREAMBED PROPERTIES AND STREAM DIMENSIONS

 SEGMENT     BED HYD. COND.      BED THICKNESS     ELEV.-TOP OF BED     WIDTH OF STREAM     DEPTH OF STREAM    STREAM ROUGHNESS
    No.     UPPER     LOWER     UPPER     LOWER     UPPER     LOWER     UPPER     LOWER     UPPER     LOWER   CHANNEL      BANK

     1  3.500E-07 3.500E-07                                                                                 3.000E-02 4.000E-02

  EIGHT POINT CROSS-SECTION DATA FOR SEGMENTS WITH ICALC = 2
    X VALUES X VALUES START FROM LEFT SIDE LOOKING DOWNSTREAM

     SEGMENT NO.        X1        X2        X3        X4        X5        X6        X7        X8
            1      0.000E+00 2.000E+00 4.000E+00 6.000E+00 8.000E+00 1.000E+01 1.200E+01 1.400E+01

    Z VALUES ARE RELATIVE TO STREAMBED ELEVATION

     SEGMENT NO.          Z1        Z2        Z3        Z4        Z5        Z6        Z7        Z8
            1      6.000E+00 4.500E+00 3.500E+00 0.000E+00 3.000E-01 3.500E+00 4.500E+00 6.000E+00




 SOLVING FOR HEAD 

 NO OUTPUT CONTROL FOR STRESS PERIOD   11   TIME STEP    1

 SOLVING FOR HEAD 

 NO OUTPUT CONTROL FOR STRESS PERIOD   11   TIME STEP    2

 SOLVING FOR HEAD 

 NO OUTPUT CONTROL FOR STRESS PERIOD   11   TIME STEP    3

 SOLVING FOR HEAD 

 NO OUTPUT CONTROL FOR STRESS PERIOD   11   TIME STEP    4

 SOLVING FOR HEAD 

 NO OUTPUT CONTROL FOR STRESS PERIOD   11   TIME STEP    5

 SOLVING FOR HEAD 

 NO OUTPUT CONTROL FOR STRESS PERIOD   11   TIME STEP    6

 SOLVING FOR HEAD 

 NO OUTPUT CONTROL FOR STRESS PERIOD   11   TIME STEP    7

 SOLVING FOR HEAD 

 NO OUTPUT CONTROL FOR STRESS PERIOD   11   TIME STEP    8

 SOLVING FOR HEAD 

 NO OUTPUT CONTROL FOR STRESS PERIOD   11   TIME STEP    9

 SOLVING FOR HEAD 

 NO OUTPUT CONTROL FOR STRESS PERIOD   11   TIME STEP   10

 SOLVING FOR HEAD 

 NO OUTPUT CONTROL FOR STRESS PERIOD   11   TIME STEP   11

 SOLVING FOR HEAD 

 NO OUTPUT CONTROL FOR STRESS PERIOD   11   TIME STEP   12

 SOLVING FOR HEAD 

 NO OUTPUT CONTROL FOR STRESS PERIOD   11   TIME STEP   13

 SOLVING FOR HEAD 

 NO OUTPUT CONTROL FOR STRESS PERIOD   11   TIME STEP   14

 SOLVING FOR HEAD 

 NO OUTPUT CONTROL FOR STRESS PERIOD   11   TIME STEP   15

 SOLVING FOR HEAD 

 NO OUTPUT CONTROL FOR STRESS PERIOD   11   TIME STEP   16

 SOLVING FOR HEAD 

 NO OUTPUT CONTROL FOR STRESS PERIOD   11   TIME STEP   17

 SOLVING FOR HEAD 

 NO OUTPUT CONTROL FOR STRESS PERIOD   11   TIME STEP   18

 SOLVING FOR HEAD 

 NO OUTPUT CONTROL FOR STRESS PERIOD   11   TIME STEP   19

 SOLVING FOR HEAD 

 NO OUTPUT CONTROL FOR STRESS PERIOD   11   TIME STEP   20

 SOLVING FOR HEAD 

 NO OUTPUT CONTROL FOR STRESS PERIOD   11   TIME STEP   21

 SOLVING FOR HEAD 

 NO OUTPUT CONTROL FOR STRESS PERIOD   11   TIME STEP   22

 SOLVING FOR HEAD 

 NO OUTPUT CONTROL FOR STRESS PERIOD   11   TIME STEP   23

 SOLVING FOR HEAD 

 NO OUTPUT CONTROL FOR STRESS PERIOD   11   TIME STEP   24

 SOLVING FOR HEAD 

 NO OUTPUT CONTROL FOR STRESS PERIOD   11   TIME STEP   25

 SOLVING FOR HEAD 

 NO OUTPUT CONTROL FOR STRESS PERIOD   11   TIME STEP   26

 SOLVING FOR HEAD 

 NO OUTPUT CONTROL FOR STRESS PERIOD   11   TIME STEP   27

 SOLVING FOR HEAD 

 NO OUTPUT CONTROL FOR STRESS PERIOD   11   TIME STEP   28

 SOLVING FOR HEAD 

 NO OUTPUT CONTROL FOR STRESS PERIOD   11   TIME STEP   29

 SOLVING FOR HEAD 

 NO OUTPUT CONTROL FOR STRESS PERIOD   11   TIME STEP   30



 STREAM LISTING     PERIOD     11   STEP       30

 LAYER ROW COL. STREAM  RCH.   FLOW INTO    STREAM     FLOW OUT OF   OVRLND.    DIRECT     STREAM      STREAM      STREAM     STREAM  STREAMBED   FLOW TO   CHNG. UNSAT. 
                SEG.NO.  NO.   STRM. RCH.    LOSS       STRM. RCH.   RUNOFF     PRECIP       ET         HEAD        DEPTH      WIDTH  CONDCTNC.   WAT. TAB.

   1    4    1     1     1    3.3840E+00  1.2828E-03   3.3827E+00  0.000E+00  0.000E+00  0.000E+00  1.41228E+02  1.378E+00  3.461E+00  6.832E-04  1.414E-03 -1.307E-04
   1    4    2     1     2    3.3827E+00  1.2825E-03   3.3814E+00  0.000E+00  0.000E+00  0.000E+00  1.40927E+02  1.377E+00  3.460E+00  6.831E-04  1.414E-03 -1.311E-04
   1    4    3     1     3    3.3814E+00  1.2821E-03   3.3802E+00  0.000E+00  0.000E+00  0.000E+00  1.40627E+02  1.377E+00  3.460E+00  6.830E-04  1.414E-03 -1.316E-04
   1    4    4     1     4    3.3802E+00  1.2818E-03   3.3789E+00  0.000E+00  0.000E+00  0.000E+00  1.40327E+02  1.377E+00  3.460E+00  6.829E-04  1.414E-03 -1.320E-04
   1    4    5     1     5    3.3789E+00  1.2814E-03   3.3776E+00  0.000E+00  0.000E+00  0.000E+00  1.40027E+02  1.377E+00  3.460E+00  6.828E-04  1.414E-03 -1.326E-04
   1    4    6     1     6    3.3776E+00  1.2811E-03   3.3763E+00  0.000E+00  0.000E+00  0.000E+00  1.39726E+02  1.376E+00  3.459E+00  6.828E-04  1.415E-03 -1.335E-04
   1    4    7     1     7    3.3763E+00  1.2807E-03   3.3750E+00  0.000E+00  0.000E+00  0.000E+00  1.39426E+02  1.376E+00  3.459E+00  6.827E-04  1.415E-03 -1.343E-04
   1    4    8     1     8    3.3750E+00  1.2804E-03   3.3737E+00  0.000E+00  0.000E+00  0.000E+00  1.39126E+02  1.376E+00  3.459E+00  6.826E-04  1.416E-03 -1.354E-04
   1    4    9     1     9    3.3737E+00  1.2800E-03   3.3725E+00  0.000E+00  0.000E+00  0.000E+00  1.38826E+02  1.376E+00  3.458E+00  6.825E-04  1.417E-03 -1.368E-04
   1    4   10     1    10    3.3725E+00  1.2797E-03   3.3712E+00  0.000E+00  0.000E+00  0.000E+00  1.38525E+02  1.375E+00  3.458E+00  6.824E-04  1.418E-03 -1.385E-04
   1    4   11     1    11    3.3712E+00  1.2793E-03   3.3699E+00  0.000E+00  0.000E+00  0.000E+00  1.38225E+02  1.375E+00  3.458E+00  6.823E-04  1.420E-03 -1.405E-04
   1    4   12     1    12    3.3699E+00  1.2790E-03   3.3686E+00  0.000E+00  0.000E+00  0.000E+00  1.37925E+02  1.375E+00  3.457E+00  6.822E-04  1.422E-03 -1.427E-04
   1    4   13     1    13    3.3686E+00  1.2786E-03   3.3674E+00  0.000E+00  0.000E+00  0.000E+00  1.37624E+02  1.374E+00  3.457E+00  6.821E-04  1.424E-03 -1.452E-04
   1    4   14     1    14    3.3674E+00  1.2783E-03   3.3661E+00  0.000E+00  0.000E+00  0.000E+00  1.37324E+02  1.374E+00  3.457E+00  6.821E-04  1.426E-03 -1.479E-04
   1    4   15     1    15    3.3661E+00  1.2779E-03   3.3648E+00  0.000E+00  0.000E+00  0.000E+00  1.37024E+02  1.374E+00  3.456E+00  6.820E-04  1.429E-03 -1.507E-04
   1    4   16     1    16    3.3648E+00  1.2776E-03   3.3635E+00  0.000E+00  0.000E+00  0.000E+00  1.36724E+02  1.374E+00  3.456E+00  6.819E-04  1.431E-03 -1.537E-04
   1    4   17     1    17    3.3635E+00  1.2772E-03   3.3622E+00  0.000E+00  0.000E+00  0.000E+00  1.36423E+02  1.373E+00  3.456E+00  6.818E-04  1.434E-03 -1.568E-04
   1    4   18     1    18    3.3622E+00  1.2769E-03   3.3610E+00  0.000E+00  0.000E+00  0.000E+00  1.36123E+02  1.373E+00  3.455E+00  6.817E-04  1.437E-03 -1.601E-04
   1    4   19     1    19    3.3610E+00  1.2765E-03   3.3597E+00  0.000E+00  0.000E+00  0.000E+00  1.35823E+02  1.373E+00  3.455E+00  6.816E-04  1.440E-03 -1.634E-04
   1    4   20     1    20    3.3597E+00  1.2762E-03   3.3584E+00  0.000E+00  0.000E+00  0.000E+00  1.35523E+02  1.373E+00  3.455E+00  6.815E-04  1.443E-03 -1.667E-04
   1    4   21     1    21    3.3584E+00  1.2758E-03   3.3571E+00  0.000E+00  0.000E+00  0.000E+00  1.35222E+02  1.372E+00  3.454E+00  6.814E-04  1.446E-03 -1.701E-04
   1    4   22     1    22    3.3571E+00  1.2755E-03   3.3559E+00  0.000E+00  0.000E+00  0.000E+00  1.34922E+02  1.372E+00  3.454E+00  6.813E-04  1.449E-03 -1.735E-04
   1    4   23     1    23    3.3559E+00  1.2751E-03   3.3546E+00  0.000E+00  0.000E+00  0.000E+00  1.34622E+02  1.372E+00  3.454E+00  6.813E-04  1.452E-03 -1.769E-04
   1    4   24     1    24    3.3546E+00  1.2748E-03   3.3533E+00  0.000E+00  0.000E+00  0.000E+00  1.34321E+02  1.371E+00  3.453E+00  6.812E-04  1.455E-03 -1.804E-04
   1    4   25     1    25    3.3533E+00  1.2744E-03   3.3520E+00  0.000E+00  0.000E+00  0.000E+00  1.34021E+02  1.371E+00  3.453E+00  6.811E-04  1.458E-03 -1.837E-04
   1    4   26     1    26    3.3520E+00  1.2741E-03   3.3508E+00  0.000E+00  0.000E+00  0.000E+00  1.33721E+02  1.371E+00  3.453E+00  6.810E-04  1.461E-03 -1.870E-04
   1    4   27     1    27    3.3508E+00  1.2737E-03   3.3495E+00  0.000E+00  0.000E+00  0.000E+00  1.33421E+02  1.371E+00  3.452E+00  6.809E-04  1.464E-03 -1.901E-04
   1    4   28     1    28    3.3495E+00  1.2734E-03   3.3482E+00  0.000E+00  0.000E+00  0.000E+00  1.33120E+02  1.370E+00  3.452E+00  6.808E-04  1.467E-03 -1.931E-04
   1    4   29     1    29    3.3482E+00  1.2730E-03   3.3469E+00  0.000E+00  0.000E+00  0.000E+00  1.32820E+02  1.370E+00  3.452E+00  6.807E-04  1.469E-03 -1.959E-04
   1    4   30     1    30    3.3469E+00  1.2727E-03   3.3457E+00  0.000E+00  0.000E+00  0.000E+00  1.32520E+02  1.370E+00  3.451E+00  6.806E-04  1.471E-03 -1.984E-04
   1    4   31     1    31    3.3457E+00  1.2723E-03   3.3444E+00  0.000E+00  0.000E+00  0.000E+00  1.32220E+02  1.370E+00  3.451E+00  6.806E-04  1.473E-03 -2.006E-04
   1    4   32     1    32    3.3444E+00  1.2720E-03   3.3431E+00  0.000E+00  0.000E+00  0.000E+00  1.31919E+02  1.369E+00  3.451E+00  6.805E-04  1.474E-03 -2.025E-04
   1    4   33     1    33    3.3431E+00  1.2716E-03   3.3419E+00  0.000E+00  0.000E+00  0.000E+00  1.31619E+02  1.369E+00  3.450E+00  6.804E-04  1.476E-03 -2.039E-04
   1    4   34     1    34    3.3419E+00  1.2713E-03   3.3406E+00  0.000E+00  0.000E+00  0.000E+00  1.31319E+02  1.369E+00  3.450E+00  6.803E-04  1.476E-03 -2.050E-04
   1    4   35     1    35    3.3406E+00  1.2709E-03   3.3393E+00  0.000E+00  0.000E+00  0.000E+00  1.31018E+02  1.368E+00  3.450E+00  6.802E-04  1.477E-03 -2.057E-04
   1    4   36     1    36    3.3393E+00  1.2706E-03   3.3380E+00  0.000E+00  0.000E+00  0.000E+00  1.30718E+02  1.368E+00  3.449E+00  6.801E-04  1.477E-03 -2.062E-04
   1    4   37     1    37    3.3380E+00  1.2702E-03   3.3368E+00  0.000E+00  0.000E+00  0.000E+00  1.30418E+02  1.368E+00  3.449E+00  6.800E-04  1.477E-03 -2.069E-04
   1    4   38     1    38    3.3368E+00  1.2699E-03   3.3355E+00  0.000E+00  0.000E+00  0.000E+00  1.30118E+02  1.368E+00  3.449E+00  6.799E-04  1.478E-03 -2.082E-04
   1    4   39     1    39    3.3355E+00  1.2695E-03   3.3342E+00  0.000E+00  0.000E+00  0.000E+00  1.29817E+02  1.367E+00  3.449E+00  6.798E-04  1.480E-03 -2.109E-04
   1    4   40     1    40    3.3342E+00  1.2692E-03   3.3330E+00  0.000E+00  0.000E+00  0.000E+00  1.29517E+02  1.367E+00  3.448E+00  6.798E-04  1.486E-03 -2.167E-04
   1    4   41     1    41    3.3330E+00  1.2689E-03   3.3317E+00  0.000E+00  0.000E+00  0.000E+00  1.29217E+02  1.367E+00  3.448E+00  6.797E-04  1.494E-03 -2.252E-04
   1    4   42     1    42    3.3317E+00  1.2685E-03   3.3304E+00  0.000E+00  0.000E+00  0.000E+00  1.28917E+02  1.367E+00  3.448E+00  6.796E-04  1.504E-03 -2.355E-04
   1    4   43     1    43    3.3304E+00  1.2682E-03   3.3292E+00  0.000E+00  0.000E+00  0.000E+00  1.28616E+02  1.366E+00  3.447E+00  6.795E-04  1.533E-03 -2.648E-04
   1    4   44     1    44    3.3292E+00  1.2678E-03   3.3279E+00  0.000E+00  0.000E+00  0.000E+00  1.28316E+02  1.366E+00  3.447E+00  6.794E-04  1.598E-03 -3.304E-04
   1    4   45     1    45    3.3279E+00  1.2675E-03   3.3266E+00  0.000E+00  0.000E+00  0.000E+00  1.28016E+02  1.366E+00  3.447E+00  6.793E-04  1.518E-03 -2.503E-04
   1    4   46     1    46    3.3266E+00  1.2671E-03   3.3254E+00  0.000E+00  0.000E+00  0.000E+00  1.27716E+02  1.366E+00  3.446E+00  6.792E-04  1.537E-03 -2.701E-04
   1    4   47     1    47    3.3254E+00  1.2668E-03   3.3241E+00  0.000E+00  0.000E+00  0.000E+00  1.27415E+02  1.365E+00  3.446E+00  6.791E-04  1.605E-03 -3.385E-04
   1    4   48     1    48    3.3241E+00  1.2664E-03   3.3228E+00  0.000E+00  0.000E+00  0.000E+00  1.27115E+02  1.365E+00  3.446E+00  6.791E-04  1.672E-03 -4.061E-04
   1    4   49     1    49    3.3228E+00  1.2661E-03   3.3216E+00  0.000E+00  0.000E+00  0.000E+00  1.26815E+02  1.365E+00  3.445E+00  6.790E-04  1.738E-03 -4.724E-04
   1    4   50     1    50    3.3216E+00  1.2657E-03   3.3203E+00  0.000E+00  0.000E+00  0.000E+00  1.26514E+02  1.364E+00  3.445E+00  6.789E-04  1.803E-03 -5.377E-04
   1    4   51     1    51    3.3203E+00  1.2654E-03   3.3190E+00  0.000E+00  0.000E+00  0.000E+00  1.26214E+02  1.364E+00  3.445E+00  6.788E-04  1.867E-03 -6.017E-04
   1    4   52     1    52    3.3190E+00  1.2650E-03   3.3178E+00  0.000E+00  0.000E+00  0.000E+00  1.25914E+02  1.364E+00  3.444E+00  6.787E-04  1.929E-03 -6.638E-04
   1    4   53     1    53    3.3178E+00  1.2647E-03   3.3165E+00  0.000E+00  0.000E+00  0.000E+00  1.25614E+02  1.364E+00  3.444E+00  6.786E-04  1.988E-03 -7.238E-04
   1    4   54     1    54    3.3165E+00  1.2643E-03   3.3152E+00  0.000E+00  0.000E+00  0.000E+00  1.25313E+02  1.363E+00  3.444E+00  6.785E-04  2.046E-03 -7.818E-04
   1    4   55     1    55    3.3152E+00  1.2640E-03   3.3140E+00  0.000E+00  0.000E+00  0.000E+00  1.25013E+02  1.363E+00  3.443E+00  6.784E-04  2.102E-03 -8.376E-04
   1    4   56     1    56    3.3140E+00  1.2636E-03   3.3127E+00  0.000E+00  0.000E+00  0.000E+00  1.24713E+02  1.363E+00  3.443E+00  6.783E-04  2.154E-03 -8.907E-04
   1    4   57     1    57    3.3127E+00  1.2633E-03   3.3114E+00  0.000E+00  0.000E+00  0.000E+00  1.24413E+02  1.363E+00  3.443E+00  6.783E-04  2.204E-03 -9.409E-04
   1    4   58     1    58    3.3114E+00  1.2629E-03   3.3102E+00  0.000E+00  0.000E+00  0.000E+00  1.24112E+02  1.362E+00  3.442E+00  6.782E-04  2.251E-03 -9.882E-04
   1    4   59     1    59    3.3102E+00  1.2626E-03   3.3089E+00  0.000E+00  0.000E+00  0.000E+00  1.23812E+02  1.362E+00  3.442E+00  6.781E-04  2.295E-03 -1.033E-03
   1    4   60     1    60    3.3089E+00  1.2622E-03   3.3076E+00  0.000E+00  0.000E+00  0.000E+00  1.23512E+02  1.362E+00  3.442E+00  6.780E-04  2.336E-03 -1.073E-03
   1    4   61     1    61    3.3076E+00  1.2619E-03   3.3064E+00  0.000E+00  0.000E+00  0.000E+00  1.23211E+02  1.361E+00  3.441E+00  6.779E-04  2.373E-03 -1.111E-03
   1    4   62     1    62    3.3064E+00  1.2616E-03   3.3051E+00  0.000E+00  0.000E+00  0.000E+00  1.22911E+02  1.361E+00  3.441E+00  6.778E-04  2.406E-03 -1.145E-03
   1    4   63     1    63    3.3051E+00  1.2612E-03   3.3039E+00  0.000E+00  0.000E+00  0.000E+00  1.22611E+02  1.361E+00  3.441E+00  6.777E-04  2.436E-03 -1.175E-03
   1    4   64     1    64    3.3039E+00  1.2609E-03   3.3026E+00  0.000E+00  0.000E+00  0.000E+00  1.22311E+02  1.361E+00  3.440E+00  6.776E-04  2.462E-03 -1.201E-03
   1    4   65     1    65    3.3026E+00  1.2605E-03   3.3013E+00  0.000E+00  0.000E+00  0.000E+00  1.22010E+02  1.360E+00  3.440E+00  6.776E-04  2.484E-03 -1.223E-03
   1    4   66     1    66    3.3013E+00  1.2602E-03   3.3001E+00  0.000E+00  0.000E+00  0.000E+00  1.21710E+02  1.360E+00  3.440E+00  6.775E-04  2.502E-03 -1.241E-03
   1    4   67     1    67    3.3001E+00  1.2598E-03   3.2988E+00  0.000E+00  0.000E+00  0.000E+00  1.21410E+02  1.360E+00  3.439E+00  6.774E-04  2.515E-03 -1.255E-03
   1    4   68     1    68    3.2988E+00  1.2595E-03   3.2976E+00  0.000E+00  0.000E+00  0.000E+00  1.21110E+02  1.360E+00  3.439E+00  6.773E-04  2.524E-03 -1.265E-03
   1    4   69     1    69    3.2976E+00  1.2591E-03   3.2963E+00  0.000E+00  0.000E+00  0.000E+00  1.20809E+02  1.359E+00  3.439E+00  6.772E-04  2.529E-03 -1.270E-03
   1    4   70     1    70    3.2963E+00  1.2588E-03   3.2950E+00  0.000E+00  0.000E+00  0.000E+00  1.20509E+02  1.359E+00  3.438E+00  6.771E-04  2.530E-03 -1.271E-03
   1    4   71     1    71    3.2950E+00  1.2584E-03   3.2938E+00  0.000E+00  0.000E+00  0.000E+00  1.20209E+02  1.359E+00  3.438E+00  6.770E-04  2.526E-03 -1.267E-03
   1    4   72     1    72    3.2938E+00  1.2581E-03   3.2925E+00  0.000E+00  0.000E+00  0.000E+00  1.19909E+02  1.359E+00  3.438E+00  6.769E-04  2.517E-03 -1.259E-03
   1    4   73     1    73    3.2925E+00  1.2132E-03   3.2913E+00  0.000E+00  0.000E+00  0.000E+00  1.19608E+02  1.358E+00  3.438E+00  6.769E-04  2.447E-03 -1.234E-03
   1    4   74     1    74    3.2913E+00  1.2574E-03   3.2901E+00  0.000E+00  0.000E+00  0.000E+00  1.19308E+02  1.358E+00  3.437E+00  6.768E-04  2.487E-03 -1.230E-03
   1    4   75     1    75    3.2901E+00  1.2571E-03   3.2888E+00  0.000E+00  0.000E+00  0.000E+00  1.19008E+02  1.358E+00  3.437E+00  6.767E-04  2.465E-03 -1.208E-03
   1    4   76     1    76    3.2888E+00  1.1521E-03   3.2876E+00  0.000E+00  0.000E+00  0.000E+00  1.18707E+02  1.357E+00  3.437E+00  6.766E-04  1.097E-03  1.096E-03
   1    4   77     1    77    3.2876E+00  9.8880E-04   3.2867E+00  0.000E+00  0.000E+00  0.000E+00  1.18407E+02  1.357E+00  3.436E+00  6.765E-04  9.325E-04  9.314E-04
   1    4   78     1    78    3.2867E+00  8.3092E-04   3.2858E+00  0.000E+00  0.000E+00  0.000E+00  1.18107E+02  1.357E+00  3.436E+00  6.765E-04  7.690E-04  7.682E-04
   1    4   79     1    79    3.2858E+00  6.7764E-04   3.2852E+00  0.000E+00  0.000E+00  0.000E+00  1.17807E+02  1.357E+00  3.436E+00  6.764E-04  6.065E-04  6.058E-04
   1    4   80     1    80    3.2852E+00  5.2785E-04   3.2846E+00  0.000E+00  0.000E+00  0.000E+00  1.17507E+02  1.357E+00  3.436E+00  6.764E-04  4.452E-04  4.447E-04
   1    4   81     1    81    3.2846E+00  3.8070E-04   3.2842E+00  0.000E+00  0.000E+00  0.000E+00  1.17207E+02  1.357E+00  3.436E+00  6.763E-04  2.856E-04  2.853E-04
   1    4   82     1    82    3.2842E+00  2.3564E-04   3.2840E+00  0.000E+00  0.000E+00  0.000E+00  1.16907E+02  1.357E+00  3.436E+00  6.763E-04  1.282E-04  1.280E-04
   1    4   83     1    83    3.2840E+00  9.1805E-05   3.2839E+00  0.000E+00  0.000E+00  0.000E+00  1.16607E+02  1.357E+00  3.435E+00  6.763E-04  0.000E+00  0.000E+00
   1    4   84     1    84    3.2839E+00 -5.1974E-05   3.2840E+00  0.000E+00  0.000E+00  0.000E+00  1.16307E+02  1.357E+00  3.435E+00  6.763E-04  0.000E+00  0.000E+00
   1    4   85     1    85    3.2840E+00 -1.9589E-04   3.2842E+00  0.000E+00  0.000E+00  0.000E+00  1.16007E+02  1.357E+00  3.436E+00  6.763E-04  0.000E+00  0.000E+00
   1    4   86     1    86    3.2842E+00 -3.4005E-04   3.2845E+00  0.000E+00  0.000E+00  0.000E+00  1.15707E+02  1.357E+00  3.436E+00  6.763E-04  0.000E+00  0.000E+00
   1    4   87     1    87    3.2845E+00 -4.8485E-04   3.2850E+00  0.000E+00  0.000E+00  0.000E+00  1.15407E+02  1.357E+00  3.436E+00  6.763E-04  0.000E+00  0.000E+00
   1    4   88     1    88    3.2850E+00 -6.3098E-04   3.2856E+00  0.000E+00  0.000E+00  0.000E+00  1.15107E+02  1.357E+00  3.436E+00  6.764E-04  0.000E+00  0.000E+00
   1    4   89     1    89    3.2856E+00 -7.7883E-04   3.2864E+00  0.000E+00  0.000E+00  0.000E+00  1.14807E+02  1.357E+00  3.436E+00  6.764E-04  0.000E+00  0.000E+00
   1    4   90     1    90    3.2864E+00 -9.2856E-04   3.2873E+00  0.000E+00  0.000E+00  0.000E+00  1.14507E+02  1.357E+00  3.436E+00  6.765E-04  0.000E+00  0.000E+00
   1    4   91     1    91    3.2873E+00 -1.0806E-03   3.2884E+00  0.000E+00  0.000E+00  0.000E+00  1.14207E+02  1.357E+00  3.436E+00  6.766E-04  0.000E+00  0.000E+00
   1    4   92     1    92    3.2884E+00 -1.2357E-03   3.2896E+00  0.000E+00  0.000E+00  0.000E+00  1.13908E+02  1.358E+00  3.437E+00  6.766E-04  0.000E+00  0.000E+00
   1    4   93     1    93    3.2896E+00 -1.3942E-03   3.2910E+00  0.000E+00  0.000E+00  0.000E+00  1.13608E+02  1.358E+00  3.437E+00  6.767E-04  0.000E+00  0.000E+00
   1    4   94     1    94    3.2910E+00 -1.5564E-03   3.2926E+00  0.000E+00  0.000E+00  0.000E+00  1.13308E+02  1.358E+00  3.438E+00  6.768E-04  0.000E+00  0.000E+00
   1    4   95     1    95    3.2926E+00 -1.7228E-03   3.2943E+00  0.000E+00  0.000E+00  0.000E+00  1.13009E+02  1.359E+00  3.438E+00  6.770E-04  0.000E+00  0.000E+00
   1    4   96     1    96    3.2943E+00 -1.8940E-03   3.2962E+00  0.000E+00  0.000E+00  0.000E+00  1.12709E+02  1.359E+00  3.438E+00  6.771E-04  0.000E+00  0.000E+00
   1    4   97     1    97    3.2962E+00 -2.0707E-03   3.2983E+00  0.000E+00  0.000E+00  0.000E+00  1.12409E+02  1.359E+00  3.439E+00  6.772E-04  0.000E+00  0.000E+00
   1    4   98     1    98    3.2983E+00 -2.2530E-03   3.3005E+00  0.000E+00  0.000E+00  0.000E+00  1.12110E+02  1.360E+00  3.439E+00  6.774E-04  0.000E+00  0.000E+00
   1    4   99     1    99    3.3005E+00 -2.4417E-03   3.3030E+00  0.000E+00  0.000E+00  0.000E+00  1.11810E+02  1.360E+00  3.440E+00  6.775E-04  0.000E+00  0.000E+00
   1    4  100     1   100    3.3030E+00 -2.6375E-03   3.3056E+00  0.000E+00  0.000E+00  0.000E+00  1.11511E+02  1.361E+00  3.441E+00  6.777E-04  0.000E+00  0.000E+00



1
  VOLUMETRIC BUDGET FOR UNSATURATED ZONE BENEATH STREAMS AT END OF TIME STEP    30 STRESS PERIOD  11
  ------------------------------------------------------------------------------------------------

    CUMULATIVE VOLUMES             L**3    RATES FOR THIS TIME STEP         L**3/T
    ------------------                     ------------------------


          STREAM LOSS =     10358900.0000            STREAM LOSS =        9.5199E-02
    CHANGE IN STORAGE =       164209.6562      CHANGE IN STORAGE =       -4.1265E-02
       RECHARGE TO GW =     10197353.0000         RECHARGE TO GW =            0.1365

             TOTAL IN =     10358900.0000               TOTAL IN =            0.1365

            TOTAL OUT =     10361563.0000              TOTAL OUT =            0.1365

             IN - OUT =        -2663.0000               IN - OUT =            0.0000

  PERCENT DISCREPANCY =           -0.01      PERCENT DISCREPANCY =             0.00



1
  VOLUMETRIC BUDGET FOR ENTIRE MODEL AT END OF TIME STEP   30, STRESS PERIOD  11
  ------------------------------------------------------------------------------

     CUMULATIVE VOLUMES      L**3       RATES FOR THIS TIME STEP      L**3/T
     ------------------                 ------------------------

           IN:                                      IN:
           ---                                      ---
             STORAGE =      356497.8438               STORAGE =       2.3842E-07
       CONSTANT HEAD =           0.0000         CONSTANT HEAD =           0.0000
     HEAD DEP BOUNDS =     8961620.0000       HEAD DEP BOUNDS =       9.9749E-02
      STREAM LEAKAGE =    10788342.0000        STREAM LEAKAGE =           0.1413

            TOTAL IN =    20106460.0000              TOTAL IN =           0.2411

          OUT:                                     OUT:
          ----                                     ----
             STORAGE =    19623142.0000               STORAGE =           0.2193
       CONSTANT HEAD =           0.0000         CONSTANT HEAD =           0.0000
     HEAD DEP BOUNDS =           0.0000       HEAD DEP BOUNDS =           0.0000
      STREAM LEAKAGE =      483563.5625        STREAM LEAKAGE =       2.1698E-02

           TOTAL OUT =    20106706.0000             TOTAL OUT =           0.2410

            IN - OUT =        -246.0000              IN - OUT =       1.3721E-04

 PERCENT DISCREPANCY =          -0.00     PERCENT DISCREPANCY =           0.06






         TIME SUMMARY AT END OF TIME STEP   30 IN STRESS PERIOD   11
                    SECONDS     MINUTES      HOURS       DAYS        YEARS
                    -----------------------------------------------------------
   TIME STEP LENGTH 2.49961E+05  4166.0      69.434      2.8931     7.92080E-03
 STRESS PERIOD TIME 2.59200E+06  43200.      720.00      30.000     8.21355E-02
         TOTAL TIME 2.85120E+07 4.75200E+05  7920.0      330.00     0.90349    
1
1
                            STRESS PERIOD NO.   12, LENGTH =   2592000.    
                            -----------------------------------------------

                              NUMBER OF TIME STEPS =    30

                               MULTIPLIER FOR DELT =     1.100

                            INITIAL TIME STEP SIZE =   15757.40    

 REUSING NON-PARAMETER GHB CELLS FROM LAST STRESS PERIOD

      7 GHB CELLS



 CLASSIFICATION & COUNT OF STREAM SEGMENTS BASED ON SOURCE OF INFLOW:

                HEADWATER     DIVERSION     RECEIVES TRIBUTARY FLOW
                ---------     ---------     -----------------------
                     1              0               0



                    INPUT DATA FOR EACH STREAM SEGMENT
 ---------------------------------------------------------------------------------------------

 SEGMENT    SEG.     INFLOW   OVERLAND   STREAM    STREAM   ICALC  OUTFLOW  DIVERSION PRIORITY
    NO.    LENGTH     RATE     RUNOFF      ET       PPT.    METH.  TO SEG.  FROM SEG.    NO.

      1  2.000E+04 2.208E+00 0.000E+00 0.000E+00 0.000E+00    2        0        0        0


         STREAMBED PROPERTIES AND STREAM DIMENSIONS

 SEGMENT     BED HYD. COND.      BED THICKNESS     ELEV.-TOP OF BED     WIDTH OF STREAM     DEPTH OF STREAM    STREAM ROUGHNESS
    No.     UPPER     LOWER     UPPER     LOWER     UPPER     LOWER     UPPER     LOWER     UPPER     LOWER   CHANNEL      BANK

     1  3.500E-07 3.500E-07                                                                                 3.000E-02 4.000E-02

  EIGHT POINT CROSS-SECTION DATA FOR SEGMENTS WITH ICALC = 2
    X VALUES X VALUES START FROM LEFT SIDE LOOKING DOWNSTREAM

     SEGMENT NO.        X1        X2        X3        X4        X5        X6        X7        X8
            1      0.000E+00 2.000E+00 4.000E+00 6.000E+00 8.000E+00 1.000E+01 1.200E+01 1.400E+01

    Z VALUES ARE RELATIVE TO STREAMBED ELEVATION

     SEGMENT NO.          Z1        Z2        Z3        Z4        Z5        Z6        Z7        Z8
            1      6.000E+00 4.500E+00 3.500E+00 0.000E+00 3.000E-01 3.500E+00 4.500E+00 6.000E+00




 SOLVING FOR HEAD 

 NO OUTPUT CONTROL FOR STRESS PERIOD   12   TIME STEP    1

 SOLVING FOR HEAD 

 NO OUTPUT CONTROL FOR STRESS PERIOD   12   TIME STEP    2

 SOLVING FOR HEAD 

 NO OUTPUT CONTROL FOR STRESS PERIOD   12   TIME STEP    3

 SOLVING FOR HEAD 

 NO OUTPUT CONTROL FOR STRESS PERIOD   12   TIME STEP    4

 SOLVING FOR HEAD 

 NO OUTPUT CONTROL FOR STRESS PERIOD   12   TIME STEP    5

 SOLVING FOR HEAD 

 NO OUTPUT CONTROL FOR STRESS PERIOD   12   TIME STEP    6

 SOLVING FOR HEAD 

 NO OUTPUT CONTROL FOR STRESS PERIOD   12   TIME STEP    7

 SOLVING FOR HEAD 

 NO OUTPUT CONTROL FOR STRESS PERIOD   12   TIME STEP    8

 SOLVING FOR HEAD 

 NO OUTPUT CONTROL FOR STRESS PERIOD   12   TIME STEP    9

 SOLVING FOR HEAD 

 NO OUTPUT CONTROL FOR STRESS PERIOD   12   TIME STEP   10

 SOLVING FOR HEAD 

 NO OUTPUT CONTROL FOR STRESS PERIOD   12   TIME STEP   11

 SOLVING FOR HEAD 

 NO OUTPUT CONTROL FOR STRESS PERIOD   12   TIME STEP   12

 SOLVING FOR HEAD 

 NO OUTPUT CONTROL FOR STRESS PERIOD   12   TIME STEP   13

 SOLVING FOR HEAD 

 NO OUTPUT CONTROL FOR STRESS PERIOD   12   TIME STEP   14

 SOLVING FOR HEAD 

 NO OUTPUT CONTROL FOR STRESS PERIOD   12   TIME STEP   15

 SOLVING FOR HEAD 

 NO OUTPUT CONTROL FOR STRESS PERIOD   12   TIME STEP   16

 SOLVING FOR HEAD 

 NO OUTPUT CONTROL FOR STRESS PERIOD   12   TIME STEP   17

 SOLVING FOR HEAD 

 NO OUTPUT CONTROL FOR STRESS PERIOD   12   TIME STEP   18

 SOLVING FOR HEAD 

 NO OUTPUT CONTROL FOR STRESS PERIOD   12   TIME STEP   19

 SOLVING FOR HEAD 

 NO OUTPUT CONTROL FOR STRESS PERIOD   12   TIME STEP   20

 SOLVING FOR HEAD 

 NO OUTPUT CONTROL FOR STRESS PERIOD   12   TIME STEP   21

 SOLVING FOR HEAD 

 NO OUTPUT CONTROL FOR STRESS PERIOD   12   TIME STEP   22

 SOLVING FOR HEAD 

 NO OUTPUT CONTROL FOR STRESS PERIOD   12   TIME STEP   23

 SOLVING FOR HEAD 

 NO OUTPUT CONTROL FOR STRESS PERIOD   12   TIME STEP   24

 SOLVING FOR HEAD 

 NO OUTPUT CONTROL FOR STRESS PERIOD   12   TIME STEP   25

 SOLVING FOR HEAD 

 NO OUTPUT CONTROL FOR STRESS PERIOD   12   TIME STEP   26

 SOLVING FOR HEAD 

 NO OUTPUT CONTROL FOR STRESS PERIOD   12   TIME STEP   27

 SOLVING FOR HEAD 

 NO OUTPUT CONTROL FOR STRESS PERIOD   12   TIME STEP   28

 SOLVING FOR HEAD 

 NO OUTPUT CONTROL FOR STRESS PERIOD   12   TIME STEP   29

 SOLVING FOR HEAD 

 NO OUTPUT CONTROL FOR STRESS PERIOD   12   TIME STEP   30



 STREAM LISTING     PERIOD     12   STEP       30

 LAYER ROW COL. STREAM  RCH.   FLOW INTO    STREAM     FLOW OUT OF   OVRLND.    DIRECT     STREAM      STREAM      STREAM     STREAM  STREAMBED   FLOW TO   CHNG. UNSAT. 
                SEG.NO.  NO.   STRM. RCH.    LOSS       STRM. RCH.   RUNOFF     PRECIP       ET         HEAD        DEPTH      WIDTH  CONDCTNC.   WAT. TAB.

   1    4    1     1     1    2.2080E+00  9.5306E-04   2.2070E+00  0.000E+00  0.000E+00  0.000E+00  1.40954E+02  1.104E+00  3.134E+00  5.940E-04  9.913E-04 -3.820E-05
   1    4    2     1     2    2.2070E+00  9.5279E-04   2.2061E+00  0.000E+00  0.000E+00  0.000E+00  1.40654E+02  1.104E+00  3.134E+00  5.939E-04  9.918E-04 -3.899E-05
   1    4    3     1     3    2.2061E+00  9.5251E-04   2.2051E+00  0.000E+00  0.000E+00  0.000E+00  1.40354E+02  1.104E+00  3.133E+00  5.939E-04  9.923E-04 -3.976E-05
   1    4    4     1     4    2.2051E+00  9.5224E-04   2.2042E+00  0.000E+00  0.000E+00  0.000E+00  1.40054E+02  1.104E+00  3.133E+00  5.938E-04  9.928E-04 -4.054E-05
   1    4    5     1     5    2.2042E+00  9.5196E-04   2.2032E+00  0.000E+00  0.000E+00  0.000E+00  1.39753E+02  1.103E+00  3.133E+00  5.937E-04  9.934E-04 -4.140E-05
   1    4    6     1     6    2.2032E+00  9.5169E-04   2.2023E+00  0.000E+00  0.000E+00  0.000E+00  1.39453E+02  1.103E+00  3.132E+00  5.936E-04  9.940E-04 -4.236E-05
   1    4    7     1     7    2.2023E+00  9.5142E-04   2.2013E+00  0.000E+00  0.000E+00  0.000E+00  1.39153E+02  1.103E+00  3.132E+00  5.935E-04  9.947E-04 -4.330E-05
   1    4    8     1     8    2.2013E+00  9.5114E-04   2.2004E+00  0.000E+00  0.000E+00  0.000E+00  1.38853E+02  1.103E+00  3.132E+00  5.935E-04  9.955E-04 -4.438E-05
   1    4    9     1     9    2.2004E+00  9.5087E-04   2.1994E+00  0.000E+00  0.000E+00  0.000E+00  1.38552E+02  1.102E+00  3.132E+00  5.934E-04  9.965E-04 -4.559E-05
   1    4   10     1    10    2.1994E+00  9.5059E-04   2.1985E+00  0.000E+00  0.000E+00  0.000E+00  1.38252E+02  1.102E+00  3.131E+00  5.933E-04  9.975E-04 -4.693E-05
   1    4   11     1    11    2.1985E+00  9.5032E-04   2.1975E+00  0.000E+00  0.000E+00  0.000E+00  1.37952E+02  1.102E+00  3.131E+00  5.932E-04  9.987E-04 -4.842E-05
   1    4   12     1    12    2.1975E+00  9.5005E-04   2.1966E+00  0.000E+00  0.000E+00  0.000E+00  1.37652E+02  1.102E+00  3.131E+00  5.931E-04  1.000E-03 -5.005E-05
   1    4   13     1    13    2.1966E+00  9.4977E-04   2.1956E+00  0.000E+00  0.000E+00  0.000E+00  1.37351E+02  1.101E+00  3.130E+00  5.931E-04  1.002E-03 -5.182E-05
   1    4   14     1    14    2.1956E+00  9.4950E-04   2.1947E+00  0.000E+00  0.000E+00  0.000E+00  1.37051E+02  1.101E+00  3.130E+00  5.930E-04  1.016E-03 -6.645E-05
   1    4   15     1    15    2.1947E+00  9.4922E-04   2.1937E+00  0.000E+00  0.000E+00  0.000E+00  1.36751E+02  1.101E+00  3.130E+00  5.929E-04  1.021E-03 -7.206E-05
   1    4   16     1    16    2.1937E+00  9.4895E-04   2.1928E+00  0.000E+00  0.000E+00  0.000E+00  1.36451E+02  1.101E+00  3.129E+00  5.928E-04  1.026E-03 -7.753E-05
   1    4   17     1    17    2.1928E+00  9.4868E-04   2.1918E+00  0.000E+00  0.000E+00  0.000E+00  1.36150E+02  1.100E+00  3.129E+00  5.927E-04  1.031E-03 -8.281E-05
   1    4   18     1    18    2.1918E+00  9.4840E-04   2.1909E+00  0.000E+00  0.000E+00  0.000E+00  1.35850E+02  1.100E+00  3.129E+00  5.927E-04  1.036E-03 -8.785E-05
   1    4   19     1    19    2.1909E+00  9.4813E-04   2.1899E+00  0.000E+00  0.000E+00  0.000E+00  1.35550E+02  1.100E+00  3.129E+00  5.926E-04  1.039E-03 -9.260E-05
   1    4   20     1    20    2.1899E+00  9.4786E-04   2.1890E+00  0.000E+00  0.000E+00  0.000E+00  1.35250E+02  1.100E+00  3.128E+00  5.925E-04  1.041E-03 -9.697E-05
   1    4   21     1    21    2.1890E+00  9.4758E-04   2.1880E+00  0.000E+00  0.000E+00  0.000E+00  1.34950E+02  1.100E+00  3.128E+00  5.924E-04  1.043E-03 -1.010E-04
   1    4   22     1    22    2.1880E+00  9.4731E-04   2.1871E+00  0.000E+00  0.000E+00  0.000E+00  1.34649E+02  1.099E+00  3.128E+00  5.923E-04  1.046E-03 -1.046E-04
   1    4   23     1    23    2.1871E+00  9.4704E-04   2.1861E+00  0.000E+00  0.000E+00  0.000E+00  1.34349E+02  1.099E+00  3.127E+00  5.923E-04  1.048E-03 -1.010E-04
   1    4   24     1    24    2.1861E+00  9.4676E-04   2.1852E+00  0.000E+00  0.000E+00  0.000E+00  1.34049E+02  1.099E+00  3.127E+00  5.922E-04  1.050E-03 -1.036E-04
   1    4   25     1    25    2.1852E+00  9.4649E-04   2.1843E+00  0.000E+00  0.000E+00  0.000E+00  1.33749E+02  1.099E+00  3.127E+00  5.921E-04  1.053E-03 -1.062E-04
   1    4   26     1    26    2.1843E+00  9.4622E-04   2.1833E+00  0.000E+00  0.000E+00  0.000E+00  1.33448E+02  1.098E+00  3.127E+00  5.920E-04  1.055E-03 -1.134E-04
   1    4   27     1    27    2.1833E+00  9.4594E-04   2.1824E+00  0.000E+00  0.000E+00  0.000E+00  1.33148E+02  1.098E+00  3.126E+00  5.919E-04  1.057E-03 -1.139E-04
   1    4   28     1    28    2.1824E+00  9.4567E-04   2.1814E+00  0.000E+00  0.000E+00  0.000E+00  1.32848E+02  1.098E+00  3.126E+00  5.919E-04  1.059E-03 -1.137E-04
   1    4   29     1    29    2.1814E+00  9.4540E-04   2.1805E+00  0.000E+00  0.000E+00  0.000E+00  1.32548E+02  1.098E+00  3.126E+00  5.918E-04  1.058E-03 -1.125E-04
   1    4   30     1    30    2.1805E+00  9.4513E-04   2.1795E+00  0.000E+00  0.000E+00  0.000E+00  1.32247E+02  1.097E+00  3.125E+00  5.917E-04  1.056E-03 -1.105E-04
   1    4   31     1    31    2.1795E+00  9.4485E-04   2.1786E+00  0.000E+00  0.000E+00  0.000E+00  1.31947E+02  1.097E+00  3.125E+00  5.916E-04  1.052E-03 -1.075E-04
   1    4   32     1    32    2.1786E+00  9.4458E-04   2.1776E+00  0.000E+00  0.000E+00  0.000E+00  1.31647E+02  1.097E+00  3.125E+00  5.915E-04  1.048E-03 -1.035E-04
   1    4   33     1    33    2.1776E+00  9.4431E-04   2.1767E+00  0.000E+00  0.000E+00  0.000E+00  1.31347E+02  1.097E+00  3.124E+00  5.915E-04  1.042E-03 -9.724E-05
   1    4   34     1    34    2.1767E+00  9.4404E-04   2.1757E+00  0.000E+00  0.000E+00  0.000E+00  1.31046E+02  1.096E+00  3.124E+00  5.914E-04  1.043E-03 -9.912E-05
   1    4   35     1    35    2.1757E+00  9.4376E-04   2.1748E+00  0.000E+00  0.000E+00  0.000E+00  1.30746E+02  1.096E+00  3.124E+00  5.913E-04  1.044E-03 -1.007E-04
   1    4   36     1    36    2.1748E+00  9.4349E-04   2.1739E+00  0.000E+00  0.000E+00  0.000E+00  1.30446E+02  1.096E+00  3.124E+00  5.912E-04  1.045E-03 -1.017E-04
   1    4   37     1    37    2.1739E+00  9.4322E-04   2.1729E+00  0.000E+00  0.000E+00  0.000E+00  1.30146E+02  1.096E+00  3.123E+00  5.911E-04  1.045E-03 -1.014E-04
   1    4   38     1    38    2.1729E+00  9.4295E-04   2.1720E+00  0.000E+00  0.000E+00  0.000E+00  1.29845E+02  1.095E+00  3.123E+00  5.911E-04  1.041E-03 -9.832E-05
   1    4   39     1    39    2.1720E+00  9.4267E-04   2.1710E+00  0.000E+00  0.000E+00  0.000E+00  1.29545E+02  1.095E+00  3.123E+00  5.910E-04  1.032E-03 -8.952E-05
   1    4   40     1    40    2.1710E+00  9.4240E-04   2.1701E+00  0.000E+00  0.000E+00  0.000E+00  1.29245E+02  1.095E+00  3.122E+00  5.909E-04  1.011E-03 -6.837E-05
   1    4   41     1    41    2.1701E+00  9.4213E-04   2.1691E+00  0.000E+00  0.000E+00  0.000E+00  1.28945E+02  1.095E+00  3.122E+00  5.908E-04  9.622E-04 -2.003E-05
   1    4   42     1    42    2.1691E+00  9.4186E-04   2.1682E+00  0.000E+00  0.000E+00  0.000E+00  1.28644E+02  1.094E+00  3.122E+00  5.907E-04  8.697E-04  7.218E-05
   1    4   43     1    43    2.1682E+00  9.4159E-04   2.1673E+00  0.000E+00  0.000E+00  0.000E+00  1.28344E+02  1.094E+00  3.122E+00  5.907E-04  7.949E-04  1.467E-04
   1    4   44     1    44    2.1673E+00  9.4132E-04   2.1663E+00  0.000E+00  0.000E+00  0.000E+00  1.28044E+02  1.094E+00  3.121E+00  5.906E-04  7.271E-04  2.142E-04
   1    4   45     1    45    2.1663E+00  9.4104E-04   2.1654E+00  0.000E+00  0.000E+00  0.000E+00  1.27744E+02  1.094E+00  3.121E+00  5.905E-04  6.603E-04  2.807E-04
   1    4   46     1    46    2.1654E+00  9.4077E-04   2.1644E+00  0.000E+00  0.000E+00  0.000E+00  1.27443E+02  1.093E+00  3.121E+00  5.904E-04  5.946E-04  3.462E-04
   1    4   47     1    47    2.1644E+00  9.4050E-04   2.1635E+00  0.000E+00  0.000E+00  0.000E+00  1.27143E+02  1.093E+00  3.120E+00  5.903E-04  5.302E-04  4.103E-04
   1    4   48     1    48    2.1635E+00  9.4023E-04   2.1626E+00  0.000E+00  0.000E+00  0.000E+00  1.26843E+02  1.093E+00  3.120E+00  5.903E-04  4.677E-04  4.726E-04
   1    4   49     1    49    2.1626E+00  9.3996E-04   2.1616E+00  0.000E+00  0.000E+00  0.000E+00  1.26543E+02  1.093E+00  3.120E+00  5.902E-04  4.073E-04  5.327E-04
   1    4   50     1    50    2.1616E+00  9.3969E-04   2.1607E+00  0.000E+00  0.000E+00  0.000E+00  1.26242E+02  1.092E+00  3.119E+00  5.901E-04  3.490E-04  5.907E-04
   1    4   51     1    51    2.1607E+00  9.3941E-04   2.1597E+00  0.000E+00  0.000E+00  0.000E+00  1.25942E+02  1.092E+00  3.119E+00  5.900E-04  2.931E-04  6.463E-04
   1    4   52     1    52    2.1597E+00  9.3914E-04   2.1588E+00  0.000E+00  0.000E+00  0.000E+00  1.25642E+02  1.092E+00  3.119E+00  5.899E-04  2.398E-04  6.993E-04
   1    4   53     1    53    2.1588E+00  9.3887E-04   2.1579E+00  0.000E+00  0.000E+00  0.000E+00  1.25342E+02  1.092E+00  3.119E+00  5.899E-04  1.892E-04  7.496E-04
   1    4   54     1    54    2.1579E+00  9.3860E-04   2.1569E+00  0.000E+00  0.000E+00  0.000E+00  1.25041E+02  1.091E+00  3.118E+00  5.898E-04  1.411E-04  7.975E-04
   1    4   55     1    55    2.1569E+00  9.3833E-04   2.1560E+00  0.000E+00  0.000E+00  0.000E+00  1.24741E+02  1.091E+00  3.118E+00  5.897E-04  9.567E-05  8.427E-04
   1    4   56     1    56    2.1560E+00  9.3806E-04   2.1550E+00  0.000E+00  0.000E+00  0.000E+00  1.24441E+02  1.091E+00  3.118E+00  5.896E-04  5.305E-05  8.850E-04
   1    4   57     1    57    2.1550E+00  9.3779E-04   2.1541E+00  0.000E+00  0.000E+00  0.000E+00  1.24141E+02  1.091E+00  3.117E+00  5.895E-04  1.335E-05  9.244E-04
   1    4   58     1    58    2.1541E+00  9.3752E-04   2.1532E+00  0.000E+00  0.000E+00  0.000E+00  1.23840E+02  1.090E+00  3.117E+00  5.895E-04  0.000E+00  9.375E-04
   1    4   59     1    59    2.1532E+00  9.3725E-04   2.1522E+00  0.000E+00  0.000E+00  0.000E+00  1.23540E+02  1.090E+00  3.117E+00  5.894E-04  0.000E+00  9.372E-04
   1    4   60     1    60    2.1522E+00  9.3697E-04   2.1513E+00  0.000E+00  0.000E+00  0.000E+00  1.23240E+02  1.090E+00  3.117E+00  5.893E-04  0.000E+00  9.370E-04
   1    4   61     1    61    2.1513E+00  9.3670E-04   2.1504E+00  0.000E+00  0.000E+00  0.000E+00  1.22940E+02  1.090E+00  3.116E+00  5.892E-04  0.000E+00  9.367E-04
   1    4   62     1    62    2.1504E+00  9.3643E-04   2.1494E+00  0.000E+00  0.000E+00  0.000E+00  1.22639E+02  1.089E+00  3.116E+00  5.891E-04  0.000E+00  9.364E-04
   1    4   63     1    63    2.1494E+00  9.3616E-04   2.1485E+00  0.000E+00  0.000E+00  0.000E+00  1.22339E+02  1.089E+00  3.116E+00  5.891E-04  0.000E+00  9.362E-04
   1    4   64     1    64    2.1485E+00  9.3589E-04   2.1476E+00  0.000E+00  0.000E+00  0.000E+00  1.22039E+02  1.089E+00  3.115E+00  5.890E-04  0.000E+00  9.359E-04
   1    4   65     1    65    2.1476E+00  9.3562E-04   2.1466E+00  0.000E+00  0.000E+00  0.000E+00  1.21739E+02  1.089E+00  3.115E+00  5.889E-04  0.000E+00  9.356E-04
   1    4   66     1    66    2.1466E+00  9.3535E-04   2.1457E+00  0.000E+00  0.000E+00  0.000E+00  1.21438E+02  1.089E+00  3.115E+00  5.888E-04  0.000E+00  9.354E-04
   1    4   67     1    67    2.1457E+00  9.3508E-04   2.1447E+00  0.000E+00  0.000E+00  0.000E+00  1.21138E+02  1.088E+00  3.115E+00  5.887E-04  0.000E+00  9.351E-04
   1    4   68     1    68    2.1447E+00  9.2551E-04   2.1438E+00  0.000E+00  0.000E+00  0.000E+00  1.20838E+02  1.088E+00  3.114E+00  5.887E-04  0.000E+00  9.255E-04
   1    4   69     1    69    2.1438E+00  9.3454E-04   2.1429E+00  0.000E+00  0.000E+00  0.000E+00  1.20538E+02  1.088E+00  3.114E+00  5.886E-04  0.000E+00  9.345E-04
   1    4   70     1    70    2.1429E+00  9.3427E-04   2.1420E+00  0.000E+00  0.000E+00  0.000E+00  1.20238E+02  1.088E+00  3.114E+00  5.885E-04  0.000E+00  9.343E-04
   1    4   71     1    71    2.1420E+00  9.3400E-04   2.1410E+00  0.000E+00  0.000E+00  0.000E+00  1.19937E+02  1.087E+00  3.113E+00  5.884E-04  0.000E+00  9.340E-04
   1    4   72     1    72    2.1410E+00  9.3373E-04   2.1401E+00  0.000E+00  0.000E+00  0.000E+00  1.19637E+02  1.087E+00  3.113E+00  5.883E-04  0.000E+00  9.337E-04
   1    4   73     1    73    2.1401E+00  9.3346E-04   2.1392E+00  0.000E+00  0.000E+00  0.000E+00  1.19337E+02  1.087E+00  3.113E+00  5.883E-04  0.000E+00  9.335E-04
   1    4   74     1    74    2.1392E+00  9.3319E-04   2.1382E+00  0.000E+00  0.000E+00  0.000E+00  1.19037E+02  1.087E+00  3.112E+00  5.882E-04  0.000E+00  9.332E-04
   1    4   75     1    75    2.1382E+00  9.3292E-04   2.1373E+00  0.000E+00  0.000E+00  0.000E+00  1.18736E+02  1.086E+00  3.112E+00  5.881E-04  0.000E+00  9.329E-04
   1    4   76     1    76    2.1373E+00  9.3265E-04   2.1364E+00  0.000E+00  0.000E+00  0.000E+00  1.18436E+02  1.086E+00  3.112E+00  5.880E-04  0.000E+00  9.327E-04
   1    4   77     1    77    2.1364E+00  9.3238E-04   2.1354E+00  0.000E+00  0.000E+00  0.000E+00  1.18136E+02  1.086E+00  3.112E+00  5.880E-04  0.000E+00  9.324E-04
   1    4   78     1    78    2.1354E+00  9.3211E-04   2.1345E+00  0.000E+00  0.000E+00  0.000E+00  1.17836E+02  1.086E+00  3.111E+00  5.879E-04  5.365E-05  8.785E-04
   1    4   79     1    79    2.1345E+00  9.3184E-04   2.1336E+00  0.000E+00  0.000E+00  0.000E+00  1.17535E+02  1.085E+00  3.111E+00  5.878E-04  2.004E-04  7.315E-04
   1    4   80     1    80    2.1336E+00  9.3158E-04   2.1326E+00  0.000E+00  0.000E+00  0.000E+00  1.17235E+02  1.085E+00  3.111E+00  5.877E-04  3.466E-04  5.849E-04
   1    4   81     1    81    2.1326E+00  9.3131E-04   2.1317E+00  0.000E+00  0.000E+00  0.000E+00  1.16935E+02  1.085E+00  3.110E+00  5.876E-04  4.922E-04  4.391E-04
   1    4   82     1    82    2.1317E+00  9.3104E-04   2.1308E+00  0.000E+00  0.000E+00  0.000E+00  1.16635E+02  1.085E+00  3.110E+00  5.876E-04  6.367E-04  2.943E-04
   1    4   83     1    83    2.1308E+00  9.3077E-04   2.1298E+00  0.000E+00  0.000E+00  0.000E+00  1.16334E+02  1.084E+00  3.110E+00  5.875E-04  7.798E-04  1.509E-04
   1    4   84     1    84    2.1298E+00  9.3050E-04   2.1289E+00  0.000E+00  0.000E+00  0.000E+00  1.16034E+02  1.084E+00  3.110E+00  5.874E-04  9.213E-04  9.194E-06
   1    4   85     1    85    2.1289E+00  7.7996E-04   2.1281E+00  0.000E+00  0.000E+00  0.000E+00  1.15734E+02  1.084E+00  3.109E+00  5.873E-04  0.000E+00  0.000E+00
   1    4   86     1    86    2.1281E+00  6.2088E-04   2.1275E+00  0.000E+00  0.000E+00  0.000E+00  1.15434E+02  1.084E+00  3.109E+00  5.873E-04  0.000E+00  0.000E+00
   1    4   87     1    87    2.1275E+00  4.6344E-04   2.1270E+00  0.000E+00  0.000E+00  0.000E+00  1.15134E+02  1.084E+00  3.109E+00  5.872E-04  0.000E+00  0.000E+00
   1    4   88     1    88    2.1270E+00  3.0715E-04   2.1267E+00  0.000E+00  0.000E+00  0.000E+00  1.14833E+02  1.083E+00  3.109E+00  5.872E-04  0.000E+00  0.000E+00
   1    4   89     1    89    2.1267E+00  1.5163E-04   2.1266E+00  0.000E+00  0.000E+00  0.000E+00  1.14533E+02  1.083E+00  3.109E+00  5.872E-04  0.000E+00  0.000E+00
   1    4   90     1    90    2.1266E+00 -3.3797E-06   2.1266E+00  0.000E+00  0.000E+00  0.000E+00  1.14233E+02  1.083E+00  3.109E+00  5.872E-04  0.000E+00  0.000E+00
   1    4   91     1    91    2.1266E+00 -1.5828E-04   2.1267E+00  0.000E+00  0.000E+00  0.000E+00  1.13933E+02  1.083E+00  3.109E+00  5.872E-04  0.000E+00  0.000E+00
   1    4   92     1    92    2.1267E+00 -3.1354E-04   2.1271E+00  0.000E+00  0.000E+00  0.000E+00  1.13633E+02  1.083E+00  3.109E+00  5.872E-04  0.000E+00  0.000E+00
   1    4   93     1    93    2.1271E+00 -4.6955E-04   2.1275E+00  0.000E+00  0.000E+00  0.000E+00  1.13334E+02  1.084E+00  3.109E+00  5.872E-04  0.000E+00  0.000E+00
   1    4   94     1    94    2.1275E+00 -6.2660E-04   2.1282E+00  0.000E+00  0.000E+00  0.000E+00  1.13034E+02  1.084E+00  3.109E+00  5.873E-04  0.000E+00  0.000E+00
   1    4   95     1    95    2.1282E+00 -7.8508E-04   2.1289E+00  0.000E+00  0.000E+00  0.000E+00  1.12734E+02  1.084E+00  3.109E+00  5.873E-04  0.000E+00  0.000E+00
   1    4   96     1    96    2.1289E+00 -9.4550E-04   2.1299E+00  0.000E+00  0.000E+00  0.000E+00  1.12434E+02  1.084E+00  3.110E+00  5.874E-04  0.000E+00  0.000E+00
   1    4   97     1    97    2.1299E+00 -1.1082E-03   2.1310E+00  0.000E+00  0.000E+00  0.000E+00  1.12134E+02  1.084E+00  3.110E+00  5.875E-04  0.000E+00  0.000E+00
   1    4   98     1    98    2.1310E+00 -1.2737E-03   2.1323E+00  0.000E+00  0.000E+00  0.000E+00  1.11835E+02  1.085E+00  3.110E+00  5.876E-04  0.000E+00  0.000E+00
   1    4   99     1    99    2.1323E+00 -1.4422E-03   2.1337E+00  0.000E+00  0.000E+00  0.000E+00  1.11535E+02  1.085E+00  3.111E+00  5.877E-04  0.000E+00  0.000E+00
   1    4  100     1   100    2.1337E+00 -1.6144E-03   2.1353E+00  0.000E+00  0.000E+00  0.000E+00  1.11235E+02  1.085E+00  3.111E+00  5.878E-04  0.000E+00  0.000E+00



1
  VOLUMETRIC BUDGET FOR UNSATURATED ZONE BENEATH STREAMS AT END OF TIME STEP    30 STRESS PERIOD  12
  ------------------------------------------------------------------------------------------------

    CUMULATIVE VOLUMES             L**3    RATES FOR THIS TIME STEP         L**3/T
    ------------------                     ------------------------


          STREAM LOSS =     10556325.0000            STREAM LOSS =        7.9097E-02
    CHANGE IN STORAGE =       147017.9531      CHANGE IN STORAGE =        2.7173E-02
       RECHARGE TO GW =     10411896.0000         RECHARGE TO GW =        5.1900E-02

             TOTAL IN =     10556325.0000               TOTAL IN =        7.9097E-02

            TOTAL OUT =     10558914.0000              TOTAL OUT =        7.9073E-02

             IN - OUT =        -2589.0000               IN - OUT =        2.4043E-05

  PERCENT DISCREPANCY =           -0.01      PERCENT DISCREPANCY =             0.01



1
  VOLUMETRIC BUDGET FOR ENTIRE MODEL AT END OF TIME STEP   30, STRESS PERIOD  12
  ------------------------------------------------------------------------------

     CUMULATIVE VOLUMES      L**3       RATES FOR THIS TIME STEP      L**3/T
     ------------------                 ------------------------

           IN:                                      IN:
           ---                                      ---
             STORAGE =      368908.3125               STORAGE =       1.8028E-03
       CONSTANT HEAD =           0.0000         CONSTANT HEAD =           0.0000
     HEAD DEP BOUNDS =     9219798.0000       HEAD DEP BOUNDS =       9.8903E-02
      STREAM LEAKAGE =    11010002.0000        STREAM LEAKAGE =       5.4223E-02

            TOTAL IN =    20598708.0000              TOTAL IN =           0.1549

          OUT:                                     OUT:
          ----                                     ----
             STORAGE =    20072558.0000               STORAGE =           0.1460
       CONSTANT HEAD =           0.0000         CONSTANT HEAD =           0.0000
     HEAD DEP BOUNDS =           0.0000       HEAD DEP BOUNDS =           0.0000
      STREAM LEAKAGE =      526359.6250        STREAM LEAKAGE =       8.7405E-03

           TOTAL OUT =    20598918.0000             TOTAL OUT =           0.1548

            IN - OUT =        -210.0000              IN - OUT =       1.4164E-04

 PERCENT DISCREPANCY =          -0.00     PERCENT DISCREPANCY =           0.09






         TIME SUMMARY AT END OF TIME STEP   30 IN STRESS PERIOD   12
                    SECONDS     MINUTES      HOURS       DAYS        YEARS
                    -----------------------------------------------------------
   TIME STEP LENGTH 2.49961E+05  4166.0      69.434      2.8931     7.92080E-03
 STRESS PERIOD TIME 2.59200E+06  43200.      720.00      30.000     8.21355E-02
         TOTAL TIME 3.11040E+07 5.18400E+05  8640.0      360.00     0.98563    
1
1
                            STRESS PERIOD NO.   13, LENGTH =   2592000.    
                            -----------------------------------------------

                              NUMBER OF TIME STEPS =    30

                               MULTIPLIER FOR DELT =     1.100

                            INITIAL TIME STEP SIZE =   15757.40    

 REUSING NON-PARAMETER GHB CELLS FROM LAST STRESS PERIOD

      7 GHB CELLS



 CLASSIFICATION & COUNT OF STREAM SEGMENTS BASED ON SOURCE OF INFLOW:

                HEADWATER     DIVERSION     RECEIVES TRIBUTARY FLOW
                ---------     ---------     -----------------------
                     1              0               0



                    INPUT DATA FOR EACH STREAM SEGMENT
 ---------------------------------------------------------------------------------------------

 SEGMENT    SEG.     INFLOW   OVERLAND   STREAM    STREAM   ICALC  OUTFLOW  DIVERSION PRIORITY
    NO.    LENGTH     RATE     RUNOFF      ET       PPT.    METH.  TO SEG.  FROM SEG.    NO.

      1  2.000E+04 1.268E+00 0.000E+00 0.000E+00 0.000E+00    2        0        0        0


         STREAMBED PROPERTIES AND STREAM DIMENSIONS

 SEGMENT     BED HYD. COND.      BED THICKNESS     ELEV.-TOP OF BED     WIDTH OF STREAM     DEPTH OF STREAM    STREAM ROUGHNESS
    No.     UPPER     LOWER     UPPER     LOWER     UPPER     LOWER     UPPER     LOWER     UPPER     LOWER   CHANNEL      BANK

     1  3.500E-07 3.500E-07                                                                                 3.000E-02 4.000E-02

  EIGHT POINT CROSS-SECTION DATA FOR SEGMENTS WITH ICALC = 2
    X VALUES X VALUES START FROM LEFT SIDE LOOKING DOWNSTREAM

     SEGMENT NO.        X1        X2        X3        X4        X5        X6        X7        X8
            1      0.000E+00 2.000E+00 4.000E+00 6.000E+00 8.000E+00 1.000E+01 1.200E+01 1.400E+01

    Z VALUES ARE RELATIVE TO STREAMBED ELEVATION

     SEGMENT NO.          Z1        Z2        Z3        Z4        Z5        Z6        Z7        Z8
            1      6.000E+00 4.500E+00 3.500E+00 0.000E+00 3.000E-01 3.500E+00 4.500E+00 6.000E+00




 SOLVING FOR HEAD 

 NO OUTPUT CONTROL FOR STRESS PERIOD   13   TIME STEP    1

 SOLVING FOR HEAD 

 NO OUTPUT CONTROL FOR STRESS PERIOD   13   TIME STEP    2

 SOLVING FOR HEAD 

 NO OUTPUT CONTROL FOR STRESS PERIOD   13   TIME STEP    3

 SOLVING FOR HEAD 

 NO OUTPUT CONTROL FOR STRESS PERIOD   13   TIME STEP    4

 SOLVING FOR HEAD 

 NO OUTPUT CONTROL FOR STRESS PERIOD   13   TIME STEP    5

 SOLVING FOR HEAD 

 NO OUTPUT CONTROL FOR STRESS PERIOD   13   TIME STEP    6

 SOLVING FOR HEAD 

 NO OUTPUT CONTROL FOR STRESS PERIOD   13   TIME STEP    7

 SOLVING FOR HEAD 

 NO OUTPUT CONTROL FOR STRESS PERIOD   13   TIME STEP    8

 SOLVING FOR HEAD 

 NO OUTPUT CONTROL FOR STRESS PERIOD   13   TIME STEP    9

 SOLVING FOR HEAD 

 NO OUTPUT CONTROL FOR STRESS PERIOD   13   TIME STEP   10

 SOLVING FOR HEAD 

 NO OUTPUT CONTROL FOR STRESS PERIOD   13   TIME STEP   11

 SOLVING FOR HEAD 

 NO OUTPUT CONTROL FOR STRESS PERIOD   13   TIME STEP   12

 SOLVING FOR HEAD 

 NO OUTPUT CONTROL FOR STRESS PERIOD   13   TIME STEP   13

 SOLVING FOR HEAD 

 NO OUTPUT CONTROL FOR STRESS PERIOD   13   TIME STEP   14

 SOLVING FOR HEAD 

 NO OUTPUT CONTROL FOR STRESS PERIOD   13   TIME STEP   15

 SOLVING FOR HEAD 

 NO OUTPUT CONTROL FOR STRESS PERIOD   13   TIME STEP   16

 SOLVING FOR HEAD 

 NO OUTPUT CONTROL FOR STRESS PERIOD   13   TIME STEP   17

 SOLVING FOR HEAD 

 NO OUTPUT CONTROL FOR STRESS PERIOD   13   TIME STEP   18

 SOLVING FOR HEAD 

 NO OUTPUT CONTROL FOR STRESS PERIOD   13   TIME STEP   19

 SOLVING FOR HEAD 

 NO OUTPUT CONTROL FOR STRESS PERIOD   13   TIME STEP   20

 SOLVING FOR HEAD 

 NO OUTPUT CONTROL FOR STRESS PERIOD   13   TIME STEP   21

 SOLVING FOR HEAD 

 NO OUTPUT CONTROL FOR STRESS PERIOD   13   TIME STEP   22

 SOLVING FOR HEAD 

 NO OUTPUT CONTROL FOR STRESS PERIOD   13   TIME STEP   23

 SOLVING FOR HEAD 

 NO OUTPUT CONTROL FOR STRESS PERIOD   13   TIME STEP   24

 SOLVING FOR HEAD 

 NO OUTPUT CONTROL FOR STRESS PERIOD   13   TIME STEP   25

 SOLVING FOR HEAD 

 NO OUTPUT CONTROL FOR STRESS PERIOD   13   TIME STEP   26

 SOLVING FOR HEAD 

 NO OUTPUT CONTROL FOR STRESS PERIOD   13   TIME STEP   27

 SOLVING FOR HEAD 

 NO OUTPUT CONTROL FOR STRESS PERIOD   13   TIME STEP   28

 SOLVING FOR HEAD 

 NO OUTPUT CONTROL FOR STRESS PERIOD   13   TIME STEP   29

 SOLVING FOR HEAD 

 NO OUTPUT CONTROL FOR STRESS PERIOD   13   TIME STEP   30



 STREAM LISTING     PERIOD     13   STEP       30

 LAYER ROW COL. STREAM  RCH.   FLOW INTO    STREAM     FLOW OUT OF   OVRLND.    DIRECT     STREAM      STREAM      STREAM     STREAM  STREAMBED   FLOW TO   CHNG. UNSAT. 
                SEG.NO.  NO.   STRM. RCH.    LOSS       STRM. RCH.   RUNOFF     PRECIP       ET         HEAD        DEPTH      WIDTH  CONDCTNC.   WAT. TAB.

   1    4    1     1     1    1.2680E+00  6.7374E-04   1.2673E+00  0.000E+00  0.000E+00  0.000E+00  1.40683E+02  8.330E-01  2.809E+00  5.054E-04  7.119E-04 -3.820E-05
   1    4    2     1     2    1.2673E+00  6.7353E-04   1.2667E+00  0.000E+00  0.000E+00  0.000E+00  1.40383E+02  8.328E-01  2.809E+00  5.054E-04  7.128E-04 -3.931E-05
   1    4    3     1     3    1.2667E+00  6.7332E-04   1.2660E+00  0.000E+00  0.000E+00  0.000E+00  1.40083E+02  8.325E-01  2.809E+00  5.053E-04  7.137E-04 -4.040E-05
   1    4    4     1     4    1.2660E+00  6.7311E-04   1.2653E+00  0.000E+00  0.000E+00  0.000E+00  1.39782E+02  8.323E-01  2.808E+00  5.052E-04  7.146E-04 -4.150E-05
   1    4    5     1     5    1.2653E+00  6.7290E-04   1.2646E+00  0.000E+00  0.000E+00  0.000E+00  1.39482E+02  8.321E-01  2.808E+00  5.051E-04  7.155E-04 -4.260E-05
   1    4    6     1     6    1.2646E+00  6.7270E-04   1.2640E+00  0.000E+00  0.000E+00  0.000E+00  1.39182E+02  8.319E-01  2.808E+00  5.051E-04  7.166E-04 -4.391E-05
   1    4    7     1     7    1.2640E+00  6.7249E-04   1.2633E+00  0.000E+00  0.000E+00  0.000E+00  1.38882E+02  8.316E-01  2.808E+00  5.050E-04  7.177E-04 -4.526E-05
   1    4    8     1     8    1.2633E+00  6.7228E-04   1.2626E+00  0.000E+00  0.000E+00  0.000E+00  1.38581E+02  8.314E-01  2.807E+00  5.049E-04  7.180E-04 -4.570E-05
   1    4    9     1     9    1.2626E+00  6.7207E-04   1.2619E+00  0.000E+00  0.000E+00  0.000E+00  1.38281E+02  8.312E-01  2.807E+00  5.049E-04  7.186E-04 -4.650E-05
   1    4   10     1    10    1.2619E+00  6.7186E-04   1.2613E+00  0.000E+00  0.000E+00  0.000E+00  1.37981E+02  8.310E-01  2.807E+00  5.048E-04  7.194E-04 -4.753E-05
   1    4   11     1    11    1.2613E+00  6.7166E-04   1.2606E+00  0.000E+00  0.000E+00  0.000E+00  1.37681E+02  8.308E-01  2.806E+00  5.047E-04  7.204E-04 -4.874E-05
   1    4   12     1    12    1.2606E+00  6.7145E-04   1.2599E+00  0.000E+00  0.000E+00  0.000E+00  1.37381E+02  8.305E-01  2.806E+00  5.046E-04  7.215E-04 -5.009E-05
   1    4   13     1    13    1.2599E+00  6.7124E-04   1.2593E+00  0.000E+00  0.000E+00  0.000E+00  1.37080E+02  8.303E-01  2.806E+00  5.046E-04  7.228E-04 -5.156E-05
   1    4   14     1    14    1.2593E+00  6.7103E-04   1.2586E+00  0.000E+00  0.000E+00  0.000E+00  1.36780E+02  8.301E-01  2.806E+00  5.045E-04  7.242E-04 -5.315E-05
   1    4   15     1    15    1.2586E+00  6.7083E-04   1.2579E+00  0.000E+00  0.000E+00  0.000E+00  1.36480E+02  8.299E-01  2.805E+00  5.044E-04  7.257E-04 -5.484E-05
   1    4   16     1    16    1.2579E+00  6.7062E-04   1.2572E+00  0.000E+00  0.000E+00  0.000E+00  1.36180E+02  8.297E-01  2.805E+00  5.044E-04  7.273E-04 -5.663E-05
   1    4   17     1    17    1.2572E+00  6.7041E-04   1.2566E+00  0.000E+00  0.000E+00  0.000E+00  1.35879E+02  8.294E-01  2.805E+00  5.043E-04  7.289E-04 -5.851E-05
   1    4   18     1    18    1.2566E+00  6.7021E-04   1.2559E+00  0.000E+00  0.000E+00  0.000E+00  1.35579E+02  8.292E-01  2.805E+00  5.042E-04  7.307E-04 -6.049E-05
   1    4   19     1    19    1.2559E+00  6.7000E-04   1.2552E+00  0.000E+00  0.000E+00  0.000E+00  1.35279E+02  8.290E-01  2.804E+00  5.041E-04  7.325E-04 -6.255E-05
   1    4   20     1    20    1.2552E+00  6.6979E-04   1.2546E+00  0.000E+00  0.000E+00  0.000E+00  1.34979E+02  8.288E-01  2.804E+00  5.041E-04  7.345E-04 -6.469E-05
   1    4   21     1    21    1.2546E+00  6.6958E-04   1.2539E+00  0.000E+00  0.000E+00  0.000E+00  1.34679E+02  8.286E-01  2.804E+00  5.040E-04  7.365E-04 -6.693E-05
   1    4   22     1    22    1.2539E+00  6.6938E-04   1.2532E+00  0.000E+00  0.000E+00  0.000E+00  1.34378E+02  8.283E-01  2.804E+00  5.039E-04  7.386E-04 -6.925E-05
   1    4   23     1    23    1.2532E+00  6.6917E-04   1.2526E+00  0.000E+00  0.000E+00  0.000E+00  1.34078E+02  8.281E-01  2.803E+00  5.039E-04  7.408E-04 -7.167E-05
   1    4   24     1    24    1.2526E+00  6.6896E-04   1.2519E+00  0.000E+00  0.000E+00  0.000E+00  1.33778E+02  8.279E-01  2.803E+00  5.038E-04  7.431E-04 -7.418E-05
   1    4   25     1    25    1.2519E+00  6.6876E-04   1.2512E+00  0.000E+00  0.000E+00  0.000E+00  1.33478E+02  8.277E-01  2.803E+00  5.037E-04  7.455E-04 -7.679E-05
   1    4   26     1    26    1.2512E+00  6.6855E-04   1.2506E+00  0.000E+00  0.000E+00  0.000E+00  1.33177E+02  8.274E-01  2.802E+00  5.036E-04  7.481E-04 -7.951E-05
   1    4   27     1    27    1.2506E+00  6.6834E-04   1.2499E+00  0.000E+00  0.000E+00  0.000E+00  1.32877E+02  8.272E-01  2.802E+00  5.036E-04  7.507E-04 -8.234E-05
   1    4   28     1    28    1.2499E+00  6.6814E-04   1.2492E+00  0.000E+00  0.000E+00  0.000E+00  1.32577E+02  8.270E-01  2.802E+00  5.035E-04  7.534E-04 -8.529E-05
   1    4   29     1    29    1.2492E+00  6.6793E-04   1.2485E+00  0.000E+00  0.000E+00  0.000E+00  1.32277E+02  8.268E-01  2.802E+00  5.034E-04  7.563E-04 -8.836E-05
   1    4   30     1    30    1.2485E+00  6.6772E-04   1.2479E+00  0.000E+00  0.000E+00  0.000E+00  1.31977E+02  8.266E-01  2.801E+00  5.033E-04  7.592E-04 -9.151E-05
   1    4   31     1    31    1.2479E+00  6.6752E-04   1.2472E+00  0.000E+00  0.000E+00  0.000E+00  1.31676E+02  8.263E-01  2.801E+00  5.033E-04  7.622E-04 -9.465E-05
   1    4   32     1    32    1.2472E+00  6.6731E-04   1.2465E+00  0.000E+00  0.000E+00  0.000E+00  1.31376E+02  8.261E-01  2.801E+00  5.032E-04  7.648E-04 -9.753E-05
   1    4   33     1    33    1.2465E+00  6.6710E-04   1.2459E+00  0.000E+00  0.000E+00  0.000E+00  1.31076E+02  8.259E-01  2.801E+00  5.031E-04  7.666E-04 -9.950E-05
   1    4   34     1    34    1.2459E+00  6.6690E-04   1.2452E+00  0.000E+00  0.000E+00  0.000E+00  1.30776E+02  8.257E-01  2.800E+00  5.031E-04  7.660E-04 -9.909E-05
   1    4   35     1    35    1.2452E+00  6.6669E-04   1.2445E+00  0.000E+00  0.000E+00  0.000E+00  1.30475E+02  8.255E-01  2.800E+00  5.030E-04  7.524E-04 -8.571E-05
   1    4   36     1    36    1.2445E+00  6.6648E-04   1.2439E+00  0.000E+00  0.000E+00  0.000E+00  1.30175E+02  8.252E-01  2.800E+00  5.029E-04  7.210E-04 -5.447E-05
   1    4   37     1    37    1.2439E+00  6.6628E-04   1.2432E+00  0.000E+00  0.000E+00  0.000E+00  1.29875E+02  8.250E-01  2.800E+00  5.028E-04  6.737E-04 -7.423E-06
   1    4   38     1    38    1.2432E+00  6.6607E-04   1.2425E+00  0.000E+00  0.000E+00  0.000E+00  1.29575E+02  8.248E-01  2.799E+00  5.028E-04  5.887E-04  7.734E-05
   1    4   39     1    39    1.2425E+00  6.6586E-04   1.2419E+00  0.000E+00  0.000E+00  0.000E+00  1.29275E+02  8.246E-01  2.799E+00  5.027E-04  5.191E-04  1.468E-04
   1    4   40     1    40    1.2419E+00  6.6566E-04   1.2412E+00  0.000E+00  0.000E+00  0.000E+00  1.28974E+02  8.244E-01  2.799E+00  5.026E-04  4.500E-04  2.157E-04
   1    4   41     1    41    1.2412E+00  6.6545E-04   1.2405E+00  0.000E+00  0.000E+00  0.000E+00  1.28674E+02  8.241E-01  2.799E+00  5.026E-04  3.818E-04  2.836E-04
   1    4   42     1    42    1.2405E+00  6.6525E-04   1.2399E+00  0.000E+00  0.000E+00  0.000E+00  1.28374E+02  8.239E-01  2.798E+00  5.025E-04  3.145E-04  3.507E-04
   1    4   43     1    43    1.2399E+00  6.6504E-04   1.2392E+00  0.000E+00  0.000E+00  0.000E+00  1.28074E+02  8.237E-01  2.798E+00  5.024E-04  2.484E-04  4.166E-04
   1    4   44     1    44    1.2392E+00  6.6483E-04   1.2386E+00  0.000E+00  0.000E+00  0.000E+00  1.27773E+02  8.235E-01  2.798E+00  5.023E-04  1.839E-04  4.809E-04
   1    4   45     1    45    1.2386E+00  6.6463E-04   1.2379E+00  0.000E+00  0.000E+00  0.000E+00  1.27473E+02  8.233E-01  2.797E+00  5.023E-04  1.213E-04  5.433E-04
   1    4   46     1    46    1.2379E+00  6.6442E-04   1.2372E+00  0.000E+00  0.000E+00  0.000E+00  1.27173E+02  8.230E-01  2.797E+00  5.022E-04  6.048E-05  6.039E-04
   1    4   47     1    47    1.2372E+00  6.6422E-04   1.2366E+00  0.000E+00  0.000E+00  0.000E+00  1.26873E+02  8.228E-01  2.797E+00  5.021E-04  1.765E-06  6.625E-04
   1    4   48     1    48    1.2366E+00  6.6401E-04   1.2359E+00  0.000E+00  0.000E+00  0.000E+00  1.26573E+02  8.226E-01  2.797E+00  5.021E-04  0.000E+00  6.640E-04
   1    4   49     1    49    1.2359E+00  6.6380E-04   1.2352E+00  0.000E+00  0.000E+00  0.000E+00  1.26272E+02  8.224E-01  2.796E+00  5.020E-04  0.000E+00  6.638E-04
   1    4   50     1    50    1.2352E+00  6.6360E-04   1.2346E+00  0.000E+00  0.000E+00  0.000E+00  1.25972E+02  8.222E-01  2.796E+00  5.019E-04  0.000E+00  6.636E-04
   1    4   51     1    51    1.2346E+00  6.6339E-04   1.2339E+00  0.000E+00  0.000E+00  0.000E+00  1.25672E+02  8.219E-01  2.796E+00  5.018E-04  0.000E+00  6.634E-04
   1    4   52     1    52    1.2339E+00  6.6319E-04   1.2332E+00  0.000E+00  0.000E+00  0.000E+00  1.25372E+02  8.217E-01  2.796E+00  5.018E-04  0.000E+00  6.632E-04
   1    4   53     1    53    1.2332E+00  6.6298E-04   1.2326E+00  0.000E+00  0.000E+00  0.000E+00  1.25071E+02  8.215E-01  2.795E+00  5.017E-04  0.000E+00  6.630E-04
   1    4   54     1    54    1.2326E+00  6.6278E-04   1.2319E+00  0.000E+00  0.000E+00  0.000E+00  1.24771E+02  8.213E-01  2.795E+00  5.016E-04  0.000E+00  6.628E-04
   1    4   55     1    55    1.2319E+00  6.6257E-04   1.2313E+00  0.000E+00  0.000E+00  0.000E+00  1.24471E+02  8.211E-01  2.795E+00  5.015E-04  0.000E+00  6.626E-04
   1    4   56     1    56    1.2313E+00  6.6237E-04   1.2306E+00  0.000E+00  0.000E+00  0.000E+00  1.24171E+02  8.208E-01  2.795E+00  5.015E-04  0.000E+00  6.624E-04
   1    4   57     1    57    1.2306E+00  6.6216E-04   1.2299E+00  0.000E+00  0.000E+00  0.000E+00  1.23871E+02  8.206E-01  2.794E+00  5.014E-04  0.000E+00  6.622E-04
   1    4   58     1    58    1.2299E+00  6.6195E-04   1.2293E+00  0.000E+00  0.000E+00  0.000E+00  1.23570E+02  8.204E-01  2.794E+00  5.013E-04  0.000E+00  6.620E-04
   1    4   59     1    59    1.2293E+00  6.6175E-04   1.2286E+00  0.000E+00  0.000E+00  0.000E+00  1.23270E+02  8.202E-01  2.794E+00  5.013E-04  0.000E+00  6.617E-04
   1    4   60     1    60    1.2286E+00  6.6154E-04   1.2279E+00  0.000E+00  0.000E+00  0.000E+00  1.22970E+02  8.200E-01  2.794E+00  5.012E-04  0.000E+00  6.615E-04
   1    4   61     1    61    1.2279E+00  6.6134E-04   1.2273E+00  0.000E+00  0.000E+00  0.000E+00  1.22670E+02  8.197E-01  2.793E+00  5.011E-04  0.000E+00  6.613E-04
   1    4   62     1    62    1.2273E+00  6.6113E-04   1.2266E+00  0.000E+00  0.000E+00  0.000E+00  1.22370E+02  8.195E-01  2.793E+00  5.010E-04  0.000E+00  6.611E-04
   1    4   63     1    63    1.2266E+00  6.6093E-04   1.2260E+00  0.000E+00  0.000E+00  0.000E+00  1.22069E+02  8.193E-01  2.793E+00  5.010E-04  0.000E+00  6.609E-04
   1    4   64     1    64    1.2260E+00  6.6072E-04   1.2253E+00  0.000E+00  0.000E+00  0.000E+00  1.21769E+02  8.191E-01  2.792E+00  5.009E-04  0.000E+00  6.607E-04
   1    4   65     1    65    1.2253E+00  6.6052E-04   1.2246E+00  0.000E+00  0.000E+00  0.000E+00  1.21469E+02  8.189E-01  2.792E+00  5.008E-04  0.000E+00  6.605E-04
   1    4   66     1    66    1.2246E+00  6.6031E-04   1.2240E+00  0.000E+00  0.000E+00  0.000E+00  1.21169E+02  8.186E-01  2.792E+00  5.008E-04  0.000E+00  6.603E-04
   1    4   67     1    67    1.2240E+00  6.3822E-04   1.2233E+00  0.000E+00  0.000E+00  0.000E+00  1.20868E+02  8.184E-01  2.792E+00  5.007E-04  0.000E+00  6.382E-04
   1    4   68     1    68    1.2233E+00  6.5991E-04   1.2227E+00  0.000E+00  0.000E+00  0.000E+00  1.20568E+02  8.182E-01  2.791E+00  5.006E-04  0.000E+00  6.599E-04
   1    4   69     1    69    1.2227E+00  6.5971E-04   1.2220E+00  0.000E+00  0.000E+00  0.000E+00  1.20268E+02  8.180E-01  2.791E+00  5.005E-04  0.000E+00  6.597E-04
   1    4   70     1    70    1.2220E+00  6.5950E-04   1.2214E+00  0.000E+00  0.000E+00  0.000E+00  1.19968E+02  8.178E-01  2.791E+00  5.005E-04  0.000E+00  6.595E-04
   1    4   71     1    71    1.2214E+00  6.5930E-04   1.2207E+00  0.000E+00  0.000E+00  0.000E+00  1.19668E+02  8.175E-01  2.791E+00  5.004E-04  0.000E+00  6.593E-04
   1    4   72     1    72    1.2207E+00  6.5909E-04   1.2200E+00  0.000E+00  0.000E+00  0.000E+00  1.19367E+02  8.173E-01  2.790E+00  5.003E-04  0.000E+00  6.591E-04
   1    4   73     1    73    1.2200E+00  6.5889E-04   1.2194E+00  0.000E+00  0.000E+00  0.000E+00  1.19067E+02  8.171E-01  2.790E+00  5.003E-04  0.000E+00  6.589E-04
   1    4   74     1    74    1.2194E+00  6.5868E-04   1.2187E+00  0.000E+00  0.000E+00  0.000E+00  1.18767E+02  8.169E-01  2.790E+00  5.002E-04  0.000E+00  6.587E-04
   1    4   75     1    75    1.2187E+00  6.5848E-04   1.2181E+00  0.000E+00  0.000E+00  0.000E+00  1.18467E+02  8.167E-01  2.790E+00  5.001E-04  0.000E+00  6.585E-04
   1    4   76     1    76    1.2181E+00  6.5827E-04   1.2174E+00  0.000E+00  0.000E+00  0.000E+00  1.18166E+02  8.164E-01  2.789E+00  5.000E-04  0.000E+00  6.583E-04
   1    4   77     1    77    1.2174E+00  6.5807E-04   1.2167E+00  0.000E+00  0.000E+00  0.000E+00  1.17866E+02  8.162E-01  2.789E+00  5.000E-04  0.000E+00  6.581E-04
   1    4   78     1    78    1.2167E+00  6.5787E-04   1.2161E+00  0.000E+00  0.000E+00  0.000E+00  1.17566E+02  8.160E-01  2.789E+00  4.999E-04  2.620E-05  6.317E-04
   1    4   79     1    79    1.2161E+00  6.5766E-04   1.2154E+00  0.000E+00  0.000E+00  0.000E+00  1.17266E+02  8.158E-01  2.789E+00  4.998E-04  1.521E-04  5.055E-04
   1    4   80     1    80    1.2154E+00  6.5746E-04   1.2148E+00  0.000E+00  0.000E+00  0.000E+00  1.16966E+02  8.156E-01  2.788E+00  4.998E-04  2.777E-04  3.797E-04
   1    4   81     1    81    1.2148E+00  6.5725E-04   1.2141E+00  0.000E+00  0.000E+00  0.000E+00  1.16665E+02  8.153E-01  2.788E+00  4.997E-04  4.028E-04  2.544E-04
   1    4   82     1    82    1.2141E+00  6.5705E-04   1.2135E+00  0.000E+00  0.000E+00  0.000E+00  1.16365E+02  8.151E-01  2.788E+00  4.996E-04  5.271E-04  1.300E-04
   1    4   83     1    83    1.2135E+00  6.5684E-04   1.2128E+00  0.000E+00  0.000E+00  0.000E+00  1.16065E+02  8.149E-01  2.787E+00  4.995E-04  6.503E-04  6.583E-06
   1    4   84     1    84    1.2128E+00  5.3173E-04   1.2123E+00  0.000E+00  0.000E+00  0.000E+00  1.15765E+02  8.147E-01  2.787E+00  4.995E-04  0.000E+00  0.000E+00
   1    4   85     1    85    1.2123E+00  4.0066E-04   1.2119E+00  0.000E+00  0.000E+00  0.000E+00  1.15465E+02  8.145E-01  2.787E+00  4.994E-04  0.000E+00  0.000E+00
   1    4   86     1    86    1.2119E+00  2.7055E-04   1.2116E+00  0.000E+00  0.000E+00  0.000E+00  1.15164E+02  8.144E-01  2.787E+00  4.994E-04  0.000E+00  0.000E+00
   1    4   87     1    87    1.2116E+00  1.4113E-04   1.2115E+00  0.000E+00  0.000E+00  0.000E+00  1.14864E+02  8.144E-01  2.787E+00  4.994E-04  0.000E+00  0.000E+00
   1    4   88     1    88    1.2115E+00  1.2021E-05   1.2114E+00  0.000E+00  0.000E+00  0.000E+00  1.14564E+02  8.143E-01  2.787E+00  4.994E-04  0.000E+00  0.000E+00
   1    4   89     1    89    1.2114E+00 -1.1704E-04   1.2116E+00  0.000E+00  0.000E+00  0.000E+00  1.14264E+02  8.144E-01  2.787E+00  4.994E-04  0.000E+00  0.000E+00
   1    4   90     1    90    1.2116E+00 -2.4622E-04   1.2118E+00  0.000E+00  0.000E+00  0.000E+00  1.13964E+02  8.144E-01  2.787E+00  4.994E-04  0.000E+00  0.000E+00
   1    4   91     1    91    1.2118E+00 -3.7580E-04   1.2122E+00  0.000E+00  0.000E+00  0.000E+00  1.13665E+02  8.145E-01  2.787E+00  4.994E-04  0.000E+00  0.000E+00
   1    4   92     1    92    1.2122E+00 -5.0615E-04   1.2127E+00  0.000E+00  0.000E+00  0.000E+00  1.13365E+02  8.147E-01  2.787E+00  4.995E-04  0.000E+00  0.000E+00
   1    4   93     1    93    1.2127E+00 -6.3757E-04   1.2133E+00  0.000E+00  0.000E+00  0.000E+00  1.13065E+02  8.149E-01  2.787E+00  4.995E-04  0.000E+00  0.000E+00
   1    4   94     1    94    1.2133E+00 -7.7022E-04   1.2141E+00  0.000E+00  0.000E+00  0.000E+00  1.12765E+02  8.151E-01  2.788E+00  4.996E-04  0.000E+00  0.000E+00
   1    4   95     1    95    1.2141E+00 -9.0442E-04   1.2150E+00  0.000E+00  0.000E+00  0.000E+00  1.12465E+02  8.154E-01  2.788E+00  4.997E-04  0.000E+00  0.000E+00
   1    4   96     1    96    1.2150E+00 -1.0405E-03   1.2160E+00  0.000E+00  0.000E+00  0.000E+00  1.12166E+02  8.157E-01  2.788E+00  4.998E-04  0.000E+00  0.000E+00
   1    4   97     1    97    1.2160E+00 -1.1789E-03   1.2172E+00  0.000E+00  0.000E+00  0.000E+00  1.11866E+02  8.161E-01  2.789E+00  4.999E-04  0.000E+00  0.000E+00
   1    4   98     1    98    1.2172E+00 -1.3197E-03   1.2185E+00  0.000E+00  0.000E+00  0.000E+00  1.11566E+02  8.165E-01  2.789E+00  5.001E-04  0.000E+00  0.000E+00
   1    4   99     1    99    1.2185E+00 -1.4633E-03   1.2200E+00  0.000E+00  0.000E+00  0.000E+00  1.11267E+02  8.170E-01  2.790E+00  5.002E-04  0.000E+00  0.000E+00
   1    4  100     1   100    1.2200E+00 -1.6100E-03   1.2216E+00  0.000E+00  0.000E+00  0.000E+00  1.10967E+02  8.175E-01  2.791E+00  5.004E-04  0.000E+00  0.000E+00



1
  VOLUMETRIC BUDGET FOR UNSATURATED ZONE BENEATH STREAMS AT END OF TIME STEP    30 STRESS PERIOD  13
  ------------------------------------------------------------------------------------------------

    CUMULATIVE VOLUMES             L**3    RATES FOR THIS TIME STEP         L**3/T
    ------------------                     ------------------------


          STREAM LOSS =     10694818.0000            STREAM LOSS =        5.5195E-02
    CHANGE IN STORAGE =       121358.1797      CHANGE IN STORAGE =        2.3182E-02
       RECHARGE TO GW =     10575993.0000         RECHARGE TO GW =        3.2013E-02

             TOTAL IN =     10694818.0000               TOTAL IN =        5.5195E-02

            TOTAL OUT =     10697351.0000              TOTAL OUT =        5.5195E-02

             IN - OUT =        -2533.0000               IN - OUT =        2.6077E-08

  PERCENT DISCREPANCY =           -0.01      PERCENT DISCREPANCY =             0.00



1
  VOLUMETRIC BUDGET FOR ENTIRE MODEL AT END OF TIME STEP   30, STRESS PERIOD  13
  ------------------------------------------------------------------------------

     CUMULATIVE VOLUMES      L**3       RATES FOR THIS TIME STEP      L**3/T
     ------------------                 ------------------------

           IN:                                      IN:
           ---                                      ---
             STORAGE =      371862.5000               STORAGE =       1.4719E-03
       CONSTANT HEAD =           0.0000         CONSTANT HEAD =           0.0000
     HEAD DEP BOUNDS =     9473201.0000       HEAD DEP BOUNDS =       9.6407E-02
      STREAM LEAKAGE =    11178331.0000        STREAM LEAKAGE =       3.3369E-02

            TOTAL IN =    21023396.0000              TOTAL IN =           0.1312

          OUT:                                     OUT:
          ----                                     ----
             STORAGE =    20448260.0000               STORAGE =           0.1210
       CONSTANT HEAD =           0.0000         CONSTANT HEAD =           0.0000
     HEAD DEP BOUNDS =           0.0000       HEAD DEP BOUNDS =           0.0000
      STREAM LEAKAGE =      575346.0000        STREAM LEAKAGE =       1.0170E-02

           TOTAL OUT =    21023606.0000             TOTAL OUT =           0.1311

            IN - OUT =        -210.0000              IN - OUT =       1.1577E-04

 PERCENT DISCREPANCY =          -0.00     PERCENT DISCREPANCY =           0.09






         TIME SUMMARY AT END OF TIME STEP   30 IN STRESS PERIOD   13
                    SECONDS     MINUTES      HOURS       DAYS        YEARS
                    -----------------------------------------------------------
   TIME STEP LENGTH 2.49961E+05  4166.0      69.434      2.8931     7.92080E-03
 STRESS PERIOD TIME 2.59200E+06  43200.      720.00      30.000     8.21355E-02
         TOTAL TIME 3.36960E+07 5.61600E+05  9360.0      390.00      1.0678    
1
1
                            STRESS PERIOD NO.   14, LENGTH =   2592000.    
                            -----------------------------------------------

                              NUMBER OF TIME STEPS =    30

                               MULTIPLIER FOR DELT =     1.100

                            INITIAL TIME STEP SIZE =   15757.40    

 REUSING NON-PARAMETER GHB CELLS FROM LAST STRESS PERIOD

      7 GHB CELLS



 CLASSIFICATION & COUNT OF STREAM SEGMENTS BASED ON SOURCE OF INFLOW:

                HEADWATER     DIVERSION     RECEIVES TRIBUTARY FLOW
                ---------     ---------     -----------------------
                     1              0               0



                    INPUT DATA FOR EACH STREAM SEGMENT
 ---------------------------------------------------------------------------------------------

 SEGMENT    SEG.     INFLOW   OVERLAND   STREAM    STREAM   ICALC  OUTFLOW  DIVERSION PRIORITY
    NO.    LENGTH     RATE     RUNOFF      ET       PPT.    METH.  TO SEG.  FROM SEG.    NO.

      1  2.000E+04 3.350E+00 0.000E+00 0.000E+00 0.000E+00    2        0        0        0


         STREAMBED PROPERTIES AND STREAM DIMENSIONS

 SEGMENT     BED HYD. COND.      BED THICKNESS     ELEV.-TOP OF BED     WIDTH OF STREAM     DEPTH OF STREAM    STREAM ROUGHNESS
    No.     UPPER     LOWER     UPPER     LOWER     UPPER     LOWER     UPPER     LOWER     UPPER     LOWER   CHANNEL      BANK

     1  3.500E-07 3.500E-07                                                                                 3.000E-02 4.000E-02

  EIGHT POINT CROSS-SECTION DATA FOR SEGMENTS WITH ICALC = 2
    X VALUES X VALUES START FROM LEFT SIDE LOOKING DOWNSTREAM

     SEGMENT NO.        X1        X2        X3        X4        X5        X6        X7        X8
            1      0.000E+00 2.000E+00 4.000E+00 6.000E+00 8.000E+00 1.000E+01 1.200E+01 1.400E+01

    Z VALUES ARE RELATIVE TO STREAMBED ELEVATION

     SEGMENT NO.          Z1        Z2        Z3        Z4        Z5        Z6        Z7        Z8
            1      6.000E+00 4.500E+00 3.500E+00 0.000E+00 3.000E-01 3.500E+00 4.500E+00 6.000E+00




 SOLVING FOR HEAD 

 NO OUTPUT CONTROL FOR STRESS PERIOD   14   TIME STEP    1

 SOLVING FOR HEAD 

 NO OUTPUT CONTROL FOR STRESS PERIOD   14   TIME STEP    2

 SOLVING FOR HEAD 

 NO OUTPUT CONTROL FOR STRESS PERIOD   14   TIME STEP    3

 SOLVING FOR HEAD 

 NO OUTPUT CONTROL FOR STRESS PERIOD   14   TIME STEP    4

 SOLVING FOR HEAD 

 NO OUTPUT CONTROL FOR STRESS PERIOD   14   TIME STEP    5

 SOLVING FOR HEAD 

 NO OUTPUT CONTROL FOR STRESS PERIOD   14   TIME STEP    6

 SOLVING FOR HEAD 

 NO OUTPUT CONTROL FOR STRESS PERIOD   14   TIME STEP    7

 SOLVING FOR HEAD 

 NO OUTPUT CONTROL FOR STRESS PERIOD   14   TIME STEP    8

 SOLVING FOR HEAD 

 NO OUTPUT CONTROL FOR STRESS PERIOD   14   TIME STEP    9

 SOLVING FOR HEAD 

 NO OUTPUT CONTROL FOR STRESS PERIOD   14   TIME STEP   10

 SOLVING FOR HEAD 

 NO OUTPUT CONTROL FOR STRESS PERIOD   14   TIME STEP   11

 SOLVING FOR HEAD 

 NO OUTPUT CONTROL FOR STRESS PERIOD   14   TIME STEP   12

 SOLVING FOR HEAD 

 NO OUTPUT CONTROL FOR STRESS PERIOD   14   TIME STEP   13

 SOLVING FOR HEAD 

 NO OUTPUT CONTROL FOR STRESS PERIOD   14   TIME STEP   14

 SOLVING FOR HEAD 

 NO OUTPUT CONTROL FOR STRESS PERIOD   14   TIME STEP   15

 SOLVING FOR HEAD 

 NO OUTPUT CONTROL FOR STRESS PERIOD   14   TIME STEP   16

 SOLVING FOR HEAD 

 NO OUTPUT CONTROL FOR STRESS PERIOD   14   TIME STEP   17

 SOLVING FOR HEAD 

 NO OUTPUT CONTROL FOR STRESS PERIOD   14   TIME STEP   18

 SOLVING FOR HEAD 

 NO OUTPUT CONTROL FOR STRESS PERIOD   14   TIME STEP   19

 SOLVING FOR HEAD 

 NO OUTPUT CONTROL FOR STRESS PERIOD   14   TIME STEP   20

 SOLVING FOR HEAD 

 NO OUTPUT CONTROL FOR STRESS PERIOD   14   TIME STEP   21

 SOLVING FOR HEAD 

 NO OUTPUT CONTROL FOR STRESS PERIOD   14   TIME STEP   22

 SOLVING FOR HEAD 

 NO OUTPUT CONTROL FOR STRESS PERIOD   14   TIME STEP   23

 SOLVING FOR HEAD 

 NO OUTPUT CONTROL FOR STRESS PERIOD   14   TIME STEP   24

 SOLVING FOR HEAD 

 NO OUTPUT CONTROL FOR STRESS PERIOD   14   TIME STEP   25

 SOLVING FOR HEAD 

 NO OUTPUT CONTROL FOR STRESS PERIOD   14   TIME STEP   26

 SOLVING FOR HEAD 

 NO OUTPUT CONTROL FOR STRESS PERIOD   14   TIME STEP   27

 SOLVING FOR HEAD 

 NO OUTPUT CONTROL FOR STRESS PERIOD   14   TIME STEP   28

 SOLVING FOR HEAD 

 NO OUTPUT CONTROL FOR STRESS PERIOD   14   TIME STEP   29

 SOLVING FOR HEAD 

 NO OUTPUT CONTROL FOR STRESS PERIOD   14   TIME STEP   30



 STREAM LISTING     PERIOD     14   STEP       30

 LAYER ROW COL. STREAM  RCH.   FLOW INTO    STREAM     FLOW OUT OF   OVRLND.    DIRECT     STREAM      STREAM      STREAM     STREAM  STREAMBED   FLOW TO   CHNG. UNSAT. 
                SEG.NO.  NO.   STRM. RCH.    LOSS       STRM. RCH.   RUNOFF     PRECIP       ET         HEAD        DEPTH      WIDTH  CONDCTNC.   WAT. TAB.

   1    4    1     1     1    3.3500E+00  1.2735E-03   3.3487E+00  0.000E+00  0.000E+00  0.000E+00  1.41221E+02  1.370E+00  3.452E+00  6.809E-04  1.294E-03 -2.083E-05
   1    4    2     1     2    3.3487E+00  1.2732E-03   3.3475E+00  0.000E+00  0.000E+00  0.000E+00  1.40920E+02  1.370E+00  3.452E+00  6.808E-04  1.296E-03 -2.287E-05
   1    4    3     1     3    3.3475E+00  1.2728E-03   3.3462E+00  0.000E+00  0.000E+00  0.000E+00  1.40620E+02  1.370E+00  3.452E+00  6.807E-04  1.298E-03 -2.493E-05
   1    4    4     1     4    3.3462E+00  1.2725E-03   3.3449E+00  0.000E+00  0.000E+00  0.000E+00  1.40320E+02  1.370E+00  3.451E+00  6.806E-04  1.299E-03 -2.698E-05
   1    4    5     1     5    3.3449E+00  1.2721E-03   3.3436E+00  0.000E+00  0.000E+00  0.000E+00  1.40019E+02  1.369E+00  3.451E+00  6.805E-04  1.301E-03 -2.904E-05
   1    4    6     1     6    3.3436E+00  1.2718E-03   3.3424E+00  0.000E+00  0.000E+00  0.000E+00  1.39719E+02  1.369E+00  3.451E+00  6.804E-04  1.303E-03 -3.111E-05
   1    4    7     1     7    3.3424E+00  1.2714E-03   3.3411E+00  0.000E+00  0.000E+00  0.000E+00  1.39419E+02  1.369E+00  3.450E+00  6.803E-04  1.305E-03 -3.318E-05
   1    4    8     1     8    3.3411E+00  1.2711E-03   3.3398E+00  0.000E+00  0.000E+00  0.000E+00  1.39119E+02  1.369E+00  3.450E+00  6.802E-04  1.306E-03 -3.527E-05
   1    4    9     1     9    3.3398E+00  1.2707E-03   3.3386E+00  0.000E+00  0.000E+00  0.000E+00  1.38818E+02  1.368E+00  3.450E+00  6.801E-04  1.308E-03 -3.742E-05
   1    4   10     1    10    3.3386E+00  1.2704E-03   3.3373E+00  0.000E+00  0.000E+00  0.000E+00  1.38518E+02  1.368E+00  3.449E+00  6.801E-04  1.310E-03 -3.965E-05
   1    4   11     1    11    3.3373E+00  1.2700E-03   3.3360E+00  0.000E+00  0.000E+00  0.000E+00  1.38218E+02  1.368E+00  3.449E+00  6.800E-04  1.312E-03 -4.189E-05
   1    4   12     1    12    3.3360E+00  1.2697E-03   3.3347E+00  0.000E+00  0.000E+00  0.000E+00  1.37918E+02  1.368E+00  3.449E+00  6.799E-04  1.314E-03 -4.436E-05
   1    4   13     1    13    3.3347E+00  1.2693E-03   3.3335E+00  0.000E+00  0.000E+00  0.000E+00  1.37617E+02  1.367E+00  3.448E+00  6.798E-04  1.316E-03 -4.714E-05
   1    4   14     1    14    3.3335E+00  1.2690E-03   3.3322E+00  0.000E+00  0.000E+00  0.000E+00  1.37317E+02  1.367E+00  3.448E+00  6.797E-04  1.319E-03 -5.039E-05
   1    4   15     1    15    3.3322E+00  1.2686E-03   3.3309E+00  0.000E+00  0.000E+00  0.000E+00  1.37017E+02  1.367E+00  3.448E+00  6.796E-04  1.323E-03 -5.432E-05
   1    4   16     1    16    3.3309E+00  1.2683E-03   3.3297E+00  0.000E+00  0.000E+00  0.000E+00  1.36716E+02  1.366E+00  3.447E+00  6.795E-04  1.328E-03 -5.928E-05
   1    4   17     1    17    3.3297E+00  1.2679E-03   3.3284E+00  0.000E+00  0.000E+00  0.000E+00  1.36416E+02  1.366E+00  3.447E+00  6.794E-04  1.334E-03 -6.576E-05
   1    4   18     1    18    3.3284E+00  1.2676E-03   3.3271E+00  0.000E+00  0.000E+00  0.000E+00  1.36116E+02  1.366E+00  3.447E+00  6.794E-04  1.342E-03 -7.450E-05
   1    4   19     1    19    3.3271E+00  1.2673E-03   3.3259E+00  0.000E+00  0.000E+00  0.000E+00  1.35816E+02  1.366E+00  3.446E+00  6.793E-04  1.354E-03 -8.667E-05
   1    4   20     1    20    3.3259E+00  1.2669E-03   3.3246E+00  0.000E+00  0.000E+00  0.000E+00  1.35515E+02  1.365E+00  3.446E+00  6.792E-04  1.371E-03 -1.040E-04
   1    4   21     1    21    3.3246E+00  1.2666E-03   3.3233E+00  0.000E+00  0.000E+00  0.000E+00  1.35215E+02  1.365E+00  3.446E+00  6.791E-04  1.396E-03 -1.294E-04
   1    4   22     1    22    3.3233E+00  1.2662E-03   3.3221E+00  0.000E+00  0.000E+00  0.000E+00  1.34915E+02  1.365E+00  3.445E+00  6.790E-04  1.433E-03 -1.671E-04
   1    4   23     1    23    3.3221E+00  1.2659E-03   3.3208E+00  0.000E+00  0.000E+00  0.000E+00  1.34615E+02  1.365E+00  3.445E+00  6.789E-04  1.490E-03 -2.240E-04
   1    4   24     1    24    3.3208E+00  1.2655E-03   3.3195E+00  0.000E+00  0.000E+00  0.000E+00  1.34314E+02  1.364E+00  3.445E+00  6.788E-04  1.576E-03 -3.109E-04
   1    4   25     1    25    3.3195E+00  1.2652E-03   3.3183E+00  0.000E+00  0.000E+00  0.000E+00  1.34014E+02  1.364E+00  3.444E+00  6.787E-04  1.709E-03 -4.443E-04
   1    4   26     1    26    3.3183E+00  1.2648E-03   3.3170E+00  0.000E+00  0.000E+00  0.000E+00  1.33714E+02  1.364E+00  3.444E+00  6.786E-04  1.916E-03 -6.508E-04
   1    4   27     1    27    3.3170E+00  1.2645E-03   3.3157E+00  0.000E+00  0.000E+00  0.000E+00  1.33413E+02  1.363E+00  3.444E+00  6.786E-04  2.121E-03 -8.569E-04
   1    4   28     1    28    3.3157E+00  1.2641E-03   3.3145E+00  0.000E+00  0.000E+00  0.000E+00  1.33113E+02  1.363E+00  3.443E+00  6.785E-04  2.317E-03 -1.053E-03
   1    4   29     1    29    3.3145E+00  1.2638E-03   3.3132E+00  0.000E+00  0.000E+00  0.000E+00  1.32813E+02  1.363E+00  3.443E+00  6.784E-04  2.510E-03 -1.246E-03
   1    4   30     1    30    3.3132E+00  1.2634E-03   3.3119E+00  0.000E+00  0.000E+00  0.000E+00  1.32513E+02  1.363E+00  3.443E+00  6.783E-04  2.690E-03 -1.426E-03
   1    4   31     1    31    3.3119E+00  1.2631E-03   3.3107E+00  0.000E+00  0.000E+00  0.000E+00  1.32212E+02  1.362E+00  3.442E+00  6.782E-04  2.802E-03 -1.539E-03
   1    4   32     1    32    3.3107E+00  1.2627E-03   3.3094E+00  0.000E+00  0.000E+00  0.000E+00  1.31912E+02  1.362E+00  3.442E+00  6.781E-04  2.911E-03 -1.648E-03
   1    4   33     1    33    3.3094E+00  1.2624E-03   3.3082E+00  0.000E+00  0.000E+00  0.000E+00  1.31612E+02  1.362E+00  3.442E+00  6.780E-04  3.015E-03 -1.752E-03
   1    4   34     1    34    3.3082E+00  1.2620E-03   3.3069E+00  0.000E+00  0.000E+00  0.000E+00  1.31312E+02  1.362E+00  3.442E+00  6.779E-04  3.088E-03 -1.826E-03
   1    4   35     1    35    3.3069E+00  1.2617E-03   3.3056E+00  0.000E+00  0.000E+00  0.000E+00  1.31011E+02  1.361E+00  3.441E+00  6.779E-04  2.798E-03 -1.536E-03
   1    4   36     1    36    3.3056E+00  1.2613E-03   3.3044E+00  0.000E+00  0.000E+00  0.000E+00  1.30711E+02  1.361E+00  3.441E+00  6.778E-04  2.902E-03 -1.641E-03
   1    4   37     1    37    3.3044E+00  1.2610E-03   3.3031E+00  0.000E+00  0.000E+00  0.000E+00  1.30411E+02  1.361E+00  3.441E+00  6.777E-04  3.001E-03 -1.740E-03
   1    4   38     1    38    3.3031E+00  1.2607E-03   3.3019E+00  0.000E+00  0.000E+00  0.000E+00  1.30111E+02  1.360E+00  3.440E+00  6.776E-04  3.063E-03 -1.803E-03
   1    4   39     1    39    3.3019E+00  1.2603E-03   3.3006E+00  0.000E+00  0.000E+00  0.000E+00  1.29810E+02  1.360E+00  3.440E+00  6.775E-04  3.029E-03 -1.769E-03
   1    4   40     1    40    3.3006E+00  1.2600E-03   3.2993E+00  0.000E+00  0.000E+00  0.000E+00  1.29510E+02  1.360E+00  3.440E+00  6.774E-04  2.994E-03 -1.734E-03
   1    4   41     1    41    3.2993E+00  1.2596E-03   3.2981E+00  0.000E+00  0.000E+00  0.000E+00  1.29210E+02  1.360E+00  3.439E+00  6.773E-04  2.960E-03 -1.700E-03
   1    4   42     1    42    3.2981E+00  1.2593E-03   3.2968E+00  0.000E+00  0.000E+00  0.000E+00  1.28909E+02  1.359E+00  3.439E+00  6.772E-04  2.926E-03 -1.666E-03
   1    4   43     1    43    3.2968E+00  1.2589E-03   3.2956E+00  0.000E+00  0.000E+00  0.000E+00  1.28609E+02  1.359E+00  3.439E+00  6.771E-04  2.892E-03 -1.633E-03
   1    4   44     1    44    3.2956E+00  1.2586E-03   3.2943E+00  0.000E+00  0.000E+00  0.000E+00  1.28309E+02  1.359E+00  3.438E+00  6.771E-04  2.860E-03 -1.601E-03
   1    4   45     1    45    3.2943E+00  1.2582E-03   3.2930E+00  0.000E+00  0.000E+00  0.000E+00  1.28009E+02  1.359E+00  3.438E+00  6.770E-04  2.828E-03 -1.570E-03
   1    4   46     1    46    3.2930E+00  1.2579E-03   3.2918E+00  0.000E+00  0.000E+00  0.000E+00  1.27708E+02  1.358E+00  3.438E+00  6.769E-04  2.797E-03 -1.540E-03
   1    4   47     1    47    3.2918E+00  1.2575E-03   3.2905E+00  0.000E+00  0.000E+00  0.000E+00  1.27408E+02  1.358E+00  3.437E+00  6.768E-04  2.767E-03 -1.510E-03
   1    4   48     1    48    3.2905E+00  1.2572E-03   3.2893E+00  0.000E+00  0.000E+00  0.000E+00  1.27108E+02  1.358E+00  3.437E+00  6.767E-04  2.739E-03 -1.481E-03
   1    4   49     1    49    3.2893E+00  1.2568E-03   3.2880E+00  0.000E+00  0.000E+00  0.000E+00  1.26808E+02  1.358E+00  3.437E+00  6.766E-04  2.711E-03 -1.454E-03
   1    4   50     1    50    3.2880E+00  1.2565E-03   3.2867E+00  0.000E+00  0.000E+00  0.000E+00  1.26507E+02  1.357E+00  3.436E+00  6.765E-04  2.684E-03 -1.427E-03
   1    4   51     1    51    3.2867E+00  1.2562E-03   3.2855E+00  0.000E+00  0.000E+00  0.000E+00  1.26207E+02  1.357E+00  3.436E+00  6.764E-04  2.658E-03 -1.402E-03
   1    4   52     1    52    3.2855E+00  1.2558E-03   3.2842E+00  0.000E+00  0.000E+00  0.000E+00  1.25907E+02  1.357E+00  3.436E+00  6.764E-04  2.634E-03 -1.378E-03
   1    4   53     1    53    3.2842E+00  1.2555E-03   3.2830E+00  0.000E+00  0.000E+00  0.000E+00  1.25606E+02  1.356E+00  3.435E+00  6.763E-04  2.610E-03 -1.355E-03
   1    4   54     1    54    3.2830E+00  1.2551E-03   3.2817E+00  0.000E+00  0.000E+00  0.000E+00  1.25306E+02  1.356E+00  3.435E+00  6.762E-04  2.588E-03 -1.333E-03
   1    4   55     1    55    3.2817E+00  1.2548E-03   3.2805E+00  0.000E+00  0.000E+00  0.000E+00  1.25006E+02  1.356E+00  3.435E+00  6.761E-04  2.568E-03 -1.313E-03
   1    4   56     1    56    3.2805E+00  1.2544E-03   3.2792E+00  0.000E+00  0.000E+00  0.000E+00  1.24706E+02  1.356E+00  3.434E+00  6.760E-04  2.548E-03 -1.294E-03
   1    4   57     1    57    3.2792E+00  1.2541E-03   3.2780E+00  0.000E+00  0.000E+00  0.000E+00  1.24405E+02  1.355E+00  3.434E+00  6.759E-04  2.531E-03 -1.276E-03
   1    4   58     1    58    3.2780E+00  1.2537E-03   3.2767E+00  0.000E+00  0.000E+00  0.000E+00  1.24105E+02  1.355E+00  3.434E+00  6.758E-04  2.514E-03 -1.260E-03
   1    4   59     1    59    3.2767E+00  1.2534E-03   3.2755E+00  0.000E+00  0.000E+00  0.000E+00  1.23805E+02  1.355E+00  3.433E+00  6.757E-04  2.499E-03 -1.246E-03
   1    4   60     1    60    3.2755E+00  1.2079E-03   3.2742E+00  0.000E+00  0.000E+00  0.000E+00  1.23505E+02  1.355E+00  3.433E+00  6.757E-04  1.198E-03  1.196E-03
   1    4   61     1    61    3.2742E+00  1.0707E-03   3.2732E+00  0.000E+00  0.000E+00  0.000E+00  1.23204E+02  1.354E+00  3.433E+00  6.756E-04  1.141E-03  1.139E-03
   1    4   62     1    62    3.2732E+00  9.3952E-04   3.2722E+00  0.000E+00  0.000E+00  0.000E+00  1.22904E+02  1.354E+00  3.433E+00  6.755E-04  1.140E-03  1.139E-03
   1    4   63     1    63    3.2722E+00  8.1408E-04   3.2714E+00  0.000E+00  0.000E+00  0.000E+00  1.22604E+02  1.354E+00  3.432E+00  6.754E-04  1.140E-03  1.138E-03
   1    4   64     1    64    3.2714E+00  6.9372E-04   3.2707E+00  0.000E+00  0.000E+00  0.000E+00  1.22304E+02  1.354E+00  3.432E+00  6.754E-04  1.140E-03  1.138E-03
   1    4   65     1    65    3.2707E+00  5.7814E-04   3.2702E+00  0.000E+00  0.000E+00  0.000E+00  1.22004E+02  1.354E+00  3.432E+00  6.753E-04  1.139E-03  1.138E-03
   1    4   66     1    66    3.2702E+00  4.6741E-04   3.2697E+00  0.000E+00  0.000E+00  0.000E+00  1.21704E+02  1.354E+00  3.432E+00  6.753E-04  1.139E-03  1.137E-03
   1    4   67     1    67    3.2697E+00  3.6134E-04   3.2693E+00  0.000E+00  0.000E+00  0.000E+00  1.21403E+02  1.353E+00  3.432E+00  6.753E-04  1.139E-03  1.137E-03
   1    4   68     1    68    3.2693E+00  2.5920E-04   3.2691E+00  0.000E+00  0.000E+00  0.000E+00  1.21103E+02  1.353E+00  3.432E+00  6.753E-04  1.138E-03  1.137E-03
   1    4   69     1    69    3.2691E+00  1.6081E-04   3.2689E+00  0.000E+00  0.000E+00  0.000E+00  1.20803E+02  1.353E+00  3.432E+00  6.752E-04  1.095E-03  1.094E-03
   1    4   70     1    70    3.2689E+00  6.6357E-05   3.2688E+00  0.000E+00  0.000E+00  0.000E+00  1.20503E+02  1.353E+00  3.432E+00  6.752E-04  9.491E-04  9.480E-04
   1    4   71     1    71    3.2688E+00 -2.4882E-05   3.2689E+00  0.000E+00  0.000E+00  0.000E+00  1.20203E+02  1.353E+00  3.432E+00  6.752E-04  8.033E-04  8.023E-04
   1    4   72     1    72    3.2689E+00 -1.1406E-04   3.2690E+00  0.000E+00  0.000E+00  0.000E+00  1.19903E+02  1.353E+00  3.432E+00  6.752E-04  6.583E-04  6.575E-04
   1    4   73     1    73    3.2690E+00 -2.0181E-04   3.2692E+00  0.000E+00  0.000E+00  0.000E+00  1.19603E+02  1.353E+00  3.432E+00  6.753E-04  5.144E-04  5.139E-04
   1    4   74     1    74    3.2692E+00 -2.8819E-04   3.2695E+00  0.000E+00  0.000E+00  0.000E+00  1.19303E+02  1.353E+00  3.432E+00  6.753E-04  3.722E-04  3.718E-04
   1    4   75     1    75    3.2695E+00 -3.7379E-04   3.2698E+00  0.000E+00  0.000E+00  0.000E+00  1.19003E+02  1.353E+00  3.432E+00  6.753E-04  2.320E-04  2.317E-04
   1    4   76     1    76    3.2698E+00 -4.5979E-04   3.2703E+00  0.000E+00  0.000E+00  0.000E+00  1.18704E+02  1.354E+00  3.432E+00  6.753E-04  9.392E-05  9.381E-05
   1    4   77     1    77    3.2703E+00 -5.4684E-04   3.2708E+00  0.000E+00  0.000E+00  0.000E+00  1.18404E+02  1.354E+00  3.432E+00  6.754E-04  0.000E+00  0.000E+00
   1    4   78     1    78    3.2708E+00 -6.3495E-04   3.2715E+00  0.000E+00  0.000E+00  0.000E+00  1.18104E+02  1.354E+00  3.432E+00  6.754E-04  0.000E+00  0.000E+00
   1    4   79     1    79    3.2715E+00 -7.2425E-04   3.2722E+00  0.000E+00  0.000E+00  0.000E+00  1.17804E+02  1.354E+00  3.432E+00  6.754E-04  0.000E+00  0.000E+00
   1    4   80     1    80    3.2722E+00 -8.1550E-04   3.2730E+00  0.000E+00  0.000E+00  0.000E+00  1.17504E+02  1.354E+00  3.433E+00  6.755E-04  0.000E+00  0.000E+00
   1    4   81     1    81    3.2730E+00 -9.0894E-04   3.2739E+00  0.000E+00  0.000E+00  0.000E+00  1.17204E+02  1.354E+00  3.433E+00  6.756E-04  0.000E+00  0.000E+00
   1    4   82     1    82    3.2739E+00 -1.0043E-03   3.2749E+00  0.000E+00  0.000E+00  0.000E+00  1.16904E+02  1.354E+00  3.433E+00  6.756E-04  0.000E+00  0.000E+00
   1    4   83     1    83    3.2749E+00 -1.1019E-03   3.2760E+00  0.000E+00  0.000E+00  0.000E+00  1.16605E+02  1.355E+00  3.433E+00  6.757E-04  0.000E+00  0.000E+00
   1    4   84     1    84    3.2760E+00 -1.2025E-03   3.2772E+00  0.000E+00  0.000E+00  0.000E+00  1.16305E+02  1.355E+00  3.434E+00  6.758E-04  0.000E+00  0.000E+00
   1    4   85     1    85    3.2772E+00 -1.3063E-03   3.2785E+00  0.000E+00  0.000E+00  0.000E+00  1.16005E+02  1.355E+00  3.434E+00  6.759E-04  0.000E+00  0.000E+00
   1    4   86     1    86    3.2785E+00 -1.4133E-03   3.2800E+00  0.000E+00  0.000E+00  0.000E+00  1.15706E+02  1.356E+00  3.434E+00  6.760E-04  0.000E+00  0.000E+00
   1    4   87     1    87    3.2800E+00 -1.5236E-03   3.2815E+00  0.000E+00  0.000E+00  0.000E+00  1.15406E+02  1.356E+00  3.435E+00  6.761E-04  0.000E+00  0.000E+00
   1    4   88     1    88    3.2815E+00 -1.6382E-03   3.2831E+00  0.000E+00  0.000E+00  0.000E+00  1.15106E+02  1.356E+00  3.435E+00  6.762E-04  0.000E+00  0.000E+00
   1    4   89     1    89    3.2831E+00 -1.7573E-03   3.2849E+00  0.000E+00  0.000E+00  0.000E+00  1.14807E+02  1.357E+00  3.436E+00  6.763E-04  0.000E+00  0.000E+00
   1    4   90     1    90    3.2849E+00 -1.8808E-03   3.2868E+00  0.000E+00  0.000E+00  0.000E+00  1.14507E+02  1.357E+00  3.436E+00  6.764E-04  0.000E+00  0.000E+00
   1    4   91     1    91    3.2868E+00 -2.0092E-03   3.2888E+00  0.000E+00  0.000E+00  0.000E+00  1.14207E+02  1.357E+00  3.436E+00  6.766E-04  0.000E+00  0.000E+00
   1    4   92     1    92    3.2888E+00 -2.1432E-03   3.2909E+00  0.000E+00  0.000E+00  0.000E+00  1.13908E+02  1.358E+00  3.437E+00  6.767E-04  0.000E+00  0.000E+00
   1    4   93     1    93    3.2909E+00 -2.2832E-03   3.2932E+00  0.000E+00  0.000E+00  0.000E+00  1.13608E+02  1.358E+00  3.438E+00  6.769E-04  0.000E+00  0.000E+00
   1    4   94     1    94    3.2932E+00 -2.4292E-03   3.2956E+00  0.000E+00  0.000E+00  0.000E+00  1.13309E+02  1.359E+00  3.438E+00  6.770E-04  0.000E+00  0.000E+00
   1    4   95     1    95    3.2956E+00 -2.5819E-03   3.2982E+00  0.000E+00  0.000E+00  0.000E+00  1.13009E+02  1.359E+00  3.439E+00  6.772E-04  0.000E+00  0.000E+00
   1    4   96     1    96    3.2982E+00 -2.7419E-03   3.3009E+00  0.000E+00  0.000E+00  0.000E+00  1.12710E+02  1.360E+00  3.439E+00  6.774E-04  0.000E+00  0.000E+00
   1    4   97     1    97    3.3009E+00 -2.9096E-03   3.3039E+00  0.000E+00  0.000E+00  0.000E+00  1.12410E+02  1.360E+00  3.440E+00  6.776E-04  0.000E+00  0.000E+00
   1    4   98     1    98    3.3039E+00 -3.0854E-03   3.3069E+00  0.000E+00  0.000E+00  0.000E+00  1.12111E+02  1.361E+00  3.441E+00  6.778E-04  0.000E+00  0.000E+00
   1    4   99     1    99    3.3069E+00 -3.2699E-03   3.3102E+00  0.000E+00  0.000E+00  0.000E+00  1.11812E+02  1.362E+00  3.442E+00  6.780E-04  0.000E+00  0.000E+00
   1    4  100     1   100    3.3102E+00 -3.4639E-03   3.3137E+00  0.000E+00  0.000E+00  0.000E+00  1.11513E+02  1.363E+00  3.443E+00  6.782E-04  0.000E+00  0.000E+00



1
  VOLUMETRIC BUDGET FOR UNSATURATED ZONE BENEATH STREAMS AT END OF TIME STEP    30 STRESS PERIOD  14
  ------------------------------------------------------------------------------------------------

    CUMULATIVE VOLUMES             L**3    RATES FOR THIS TIME STEP         L**3/T
    ------------------                     ------------------------


          STREAM LOSS =     10927273.0000            STREAM LOSS =        7.4543E-02
    CHANGE IN STORAGE =        97606.3516      CHANGE IN STORAGE =       -6.6899E-02
       RECHARGE TO GW =     10832197.0000         RECHARGE TO GW =            0.1414

             TOTAL IN =     10927273.0000               TOTAL IN =            0.1414

            TOTAL OUT =     10929803.0000              TOTAL OUT =            0.1414

             IN - OUT =        -2530.0000               IN - OUT =        1.4901E-08

  PERCENT DISCREPANCY =           -0.01      PERCENT DISCREPANCY =             0.00



1
  VOLUMETRIC BUDGET FOR ENTIRE MODEL AT END OF TIME STEP   30, STRESS PERIOD  14
  ------------------------------------------------------------------------------

     CUMULATIVE VOLUMES      L**3       RATES FOR THIS TIME STEP      L**3/T
     ------------------                 ------------------------

           IN:                                      IN:
           ---                                      ---
             STORAGE =      378307.8125               STORAGE =           0.0000
       CONSTANT HEAD =           0.0000         CONSTANT HEAD =           0.0000
     HEAD DEP BOUNDS =     9708123.0000       HEAD DEP BOUNDS =       8.6412E-02
      STREAM LEAKAGE =    11447805.0000        STREAM LEAKAGE =           0.1481

            TOTAL IN =    21534236.0000              TOTAL IN =           0.2345

          OUT:                                     OUT:
          ----                                     ----
             STORAGE =    20872018.0000               STORAGE =           0.1895
       CONSTANT HEAD =           0.0000         CONSTANT HEAD =           0.0000
     HEAD DEP BOUNDS =           0.0000       HEAD DEP BOUNDS =           0.0000
      STREAM LEAKAGE =      662433.0625        STREAM LEAKAGE =       4.4838E-02

           TOTAL OUT =    21534452.0000             TOTAL OUT =           0.2344

            IN - OUT =        -216.0000              IN - OUT =       1.2162E-04

 PERCENT DISCREPANCY =          -0.00     PERCENT DISCREPANCY =           0.05






         TIME SUMMARY AT END OF TIME STEP   30 IN STRESS PERIOD   14
                    SECONDS     MINUTES      HOURS       DAYS        YEARS
                    -----------------------------------------------------------
   TIME STEP LENGTH 2.49961E+05  4166.0      69.434      2.8931     7.92080E-03
 STRESS PERIOD TIME 2.59200E+06  43200.      720.00      30.000     8.21355E-02
         TOTAL TIME 3.62880E+07 6.04800E+05  10080.      420.00      1.1499    
1
1
                            STRESS PERIOD NO.   15, LENGTH =   2592000.    
                            -----------------------------------------------

                              NUMBER OF TIME STEPS =    30

                               MULTIPLIER FOR DELT =     1.100

                            INITIAL TIME STEP SIZE =   15757.40    

 REUSING NON-PARAMETER GHB CELLS FROM LAST STRESS PERIOD

      7 GHB CELLS



 CLASSIFICATION & COUNT OF STREAM SEGMENTS BASED ON SOURCE OF INFLOW:

                HEADWATER     DIVERSION     RECEIVES TRIBUTARY FLOW
                ---------     ---------     -----------------------
                     1              0               0



                    INPUT DATA FOR EACH STREAM SEGMENT
 ---------------------------------------------------------------------------------------------

 SEGMENT    SEG.     INFLOW   OVERLAND   STREAM    STREAM   ICALC  OUTFLOW  DIVERSION PRIORITY
    NO.    LENGTH     RATE     RUNOFF      ET       PPT.    METH.  TO SEG.  FROM SEG.    NO.

      1  2.000E+04 6.180E+00 0.000E+00 0.000E+00 0.000E+00    2        0        0        0


         STREAMBED PROPERTIES AND STREAM DIMENSIONS

 SEGMENT     BED HYD. COND.      BED THICKNESS     ELEV.-TOP OF BED     WIDTH OF STREAM     DEPTH OF STREAM    STREAM ROUGHNESS
    No.     UPPER     LOWER     UPPER     LOWER     UPPER     LOWER     UPPER     LOWER     UPPER     LOWER   CHANNEL      BANK

     1  3.500E-07 3.500E-07                                                                                 3.000E-02 4.000E-02

  EIGHT POINT CROSS-SECTION DATA FOR SEGMENTS WITH ICALC = 2
    X VALUES X VALUES START FROM LEFT SIDE LOOKING DOWNSTREAM

     SEGMENT NO.        X1        X2        X3        X4        X5        X6        X7        X8
            1      0.000E+00 2.000E+00 4.000E+00 6.000E+00 8.000E+00 1.000E+01 1.200E+01 1.400E+01

    Z VALUES ARE RELATIVE TO STREAMBED ELEVATION

     SEGMENT NO.          Z1        Z2        Z3        Z4        Z5        Z6        Z7        Z8
            1      6.000E+00 4.500E+00 3.500E+00 0.000E+00 3.000E-01 3.500E+00 4.500E+00 6.000E+00




 SOLVING FOR HEAD 

 NO OUTPUT CONTROL FOR STRESS PERIOD   15   TIME STEP    1

 SOLVING FOR HEAD 

 NO OUTPUT CONTROL FOR STRESS PERIOD   15   TIME STEP    2

 SOLVING FOR HEAD 

 NO OUTPUT CONTROL FOR STRESS PERIOD   15   TIME STEP    3

 SOLVING FOR HEAD 

 NO OUTPUT CONTROL FOR STRESS PERIOD   15   TIME STEP    4

 SOLVING FOR HEAD 

 NO OUTPUT CONTROL FOR STRESS PERIOD   15   TIME STEP    5

 SOLVING FOR HEAD 

 NO OUTPUT CONTROL FOR STRESS PERIOD   15   TIME STEP    6

 SOLVING FOR HEAD 

 NO OUTPUT CONTROL FOR STRESS PERIOD   15   TIME STEP    7

 SOLVING FOR HEAD 

 NO OUTPUT CONTROL FOR STRESS PERIOD   15   TIME STEP    8

 SOLVING FOR HEAD 

 NO OUTPUT CONTROL FOR STRESS PERIOD   15   TIME STEP    9

 SOLVING FOR HEAD 

 NO OUTPUT CONTROL FOR STRESS PERIOD   15   TIME STEP   10

 SOLVING FOR HEAD 

 NO OUTPUT CONTROL FOR STRESS PERIOD   15   TIME STEP   11

 SOLVING FOR HEAD 

 NO OUTPUT CONTROL FOR STRESS PERIOD   15   TIME STEP   12

 SOLVING FOR HEAD 

 NO OUTPUT CONTROL FOR STRESS PERIOD   15   TIME STEP   13

 SOLVING FOR HEAD 

 NO OUTPUT CONTROL FOR STRESS PERIOD   15   TIME STEP   14

 SOLVING FOR HEAD 

 NO OUTPUT CONTROL FOR STRESS PERIOD   15   TIME STEP   15

 SOLVING FOR HEAD 

 MAXIMUM HEAD CHANGE FOR EACH ITERATION (1 INDICATES THE FIRST INNER ITERATION):

    HEAD CHANGE    HEAD CHANGE    HEAD CHANGE    HEAD CHANGE    HEAD CHANGE 
   LAYER,ROW,COL  LAYER,ROW,COL  LAYER,ROW,COL  LAYER,ROW,COL  LAYER,ROW,COL
 ---------------------------------------------------------------------------
  1  0.5044E-01  0  0.2829E-01  0  0.9975E-01  0  0.9562E-01  0  0.8386E-01
   (  1,  2, 19)  (  1,  6, 68)  (  1,  1, 70)  (  1,  3, 68)  (  1,  4, 67)
  0  0.6005E-01  0  0.9075E-01  0  0.7180E-01  0  0.6957E-01  0  0.7633E-01
   (  1,  2, 62)  (  1,  3, 60)  (  1,  3, 53)  (  1,  4, 56)  (  1,  3, 48)
  0  0.4630E-01  0  0.5502E-01  0  0.7437E-01  0  0.4311E-01  0  0.2251E-01
   (  1,  7, 45)  (  1,  7, 45)  (  1,  7, 98)  (  1,  3,100)  (  1,  1, 39)
  0  0.1336E-01  0  0.1590E-01  0  0.1156E-01  0  0.5462E-02  0  0.3999E-02
   (  1,  2, 27)  (  1,  3, 29)  (  1,  1, 32)  (  1,  7, 31)  (  1,  1, 36)
  1  0.6050E-01  0  0.1028      0  0.1523      0  0.1127      0  0.8685E-01
   (  1,  4, 19)  (  1,  4, 66)  (  1,  1, 67)  (  1,  2, 68)  (  1,  1, 62)
  0  0.9729E-01  0  0.1231      0  0.7874E-01  0  0.8605E-01  0  0.9004E-01
   (  1,  1, 59)  (  1,  2, 54)  (  1,  3, 50)  (  1,  2, 47)  (  1,  3, 45)
  0  0.6799E-01  0  0.9493E-01  0  0.8700E-01  0  0.4845E-01  0  0.3058E-01
   (  1,  6, 43)  (  1,  6, 41)  (  1,  1,100)  (  1,  6, 99)  (  1,  1,100)
  0  0.1938E-01  0  0.1042E-01  0  0.6359E-02  0 -0.4055E-02  0 -0.5763E-02
   (  1,  3, 28)  (  1,  4, 29)  (  1,  2, 31)  (  1,  7, 99)  (  1,  5,100)
  1  0.1693      0  0.1573      0  0.1608      0  0.1316      0  0.1370    
   (  1,  4, 64)  (  1,  2, 63)  (  1,  1, 67)  (  1,  1, 73)  (  1,  2, 55)
  0  0.1168      0  0.1133      0  0.1163      0  0.8617E-01  0  0.1064    
   (  1,  1, 53)  (  1,  1, 50)  (  1,  1, 47)  (  1,  3, 45)  (  1,  2, 42)
  0  0.9314E-01  0  0.8298E-01  0  0.1053      0  0.4612E-01  0  0.2300E-01
   (  1,  4, 40)  (  1,  2, 36)  (  1,  1,100)  (  1,  7, 99)  (  1,  1,100)
  0  0.8039E-02  0  0.1979E-02  0  0.1262E-02  0  0.1839E-02  0  0.1732E-02
   (  1,  4, 99)  (  1,  7, 97)  (  1,  6, 96)  (  1,  1, 91)  (  1,  1, 99)
  1  0.1834      0  0.1665      0  0.1563      0  0.1526      0  0.1474    
   (  1,  4, 61)  (  1,  7, 60)  (  1,  1, 62)  (  1,  1, 70)  (  1,  2, 52)
  0  0.1100      0  0.1371      0  0.1089      0  0.9303E-01  0  0.1069    
   (  1,  1, 49)  (  1,  1, 47)  (  1,  2, 44)  (  1,  2, 42)  (  1,  2, 39)
  0  0.7789E-01  0  0.6706E-01  0  0.5446E-01  0  0.3607E-01  0  0.4011E-01
   (  1,  3, 36)  (  1,  2, 33)  (  1,  1,100)  (  1,  6, 99)  (  1,  1,100)
  0  0.2790E-01  0  0.2028E-01  0  0.1120E-01  0  0.7929E-02  0  0.6686E-02
   (  1,  6, 99)  (  1,  1,100)  (  1,  7, 99)  (  1,  1, 94)  (  1,  7, 90)
  1  0.1620      0  0.1386      0  0.1391      0  0.1310      0  0.1393    
   (  1,  4, 57)  (  1,  4, 56)  (  1,  1, 59)  (  1,  1, 65)  (  1,  1, 49)
  0  0.1024      0  0.1112      0  0.1074      0  0.7959E-01  0  0.9416E-01
   (  1,  2, 47)  (  1,  1, 45)  (  1,  2, 42)  (  1,  2, 39)  (  1,  1, 36)
  0  0.6486E-01  0  0.3910E-01  0  0.2816E-01  0  0.1876E-01  0  0.3074E-01
   (  1,  2, 34)  (  1,  2, 31)  (  1,  3, 29)  (  1,  7, 89)  (  1,  1,100)
  0  0.4061E-01  0  0.2187E-01  0  0.9888E-02  0  0.5327E-02  0  0.6850E-02
   (  1,  6, 99)  (  1,  1,100)  (  1,  3, 99)  (  1,  1,100)  (  1,  3, 85)
  1  0.1200      0  0.1034      0  0.1184      0  0.1061      0  0.1103    
   (  1,  4, 54)  (  1,  1, 58)  (  1,  1, 56)  (  1,  1, 62)  (  1,  7, 60)
  0  0.8514E-01  0  0.8900E-01  0  0.8760E-01  0  0.6450E-01  0  0.6832E-01
   (  1,  7, 63)  (  1,  1, 42)  (  1,  2, 40)  (  1,  1, 36)  (  1,  1, 33)
  0  0.4348E-01  0  0.1858E-01  0  0.1617E-01  0  0.1485E-01  0  0.1937E-01
   (  1,  3, 31)  (  1,  2, 29)  (  1,  7, 84)  (  1,  7, 86)  (  1,  5, 88)
  0  0.2082E-01  0  0.1944E-01  0  0.1823E-01  0  0.1373E-01  0  0.5048E-02
   (  1,  2, 93)  (  1,  1,100)  (  1,  6, 99)  (  1,  1,100)  (  1,  7, 99)
  1  0.8689E-01  0  0.7846E-01  0  0.8685E-01  0  0.8134E-01  0  0.8610E-01
   (  1,  4, 52)  (  1,  1, 55)  (  1,  1, 54)  (  1,  2, 51)  (  1,  7, 58)
  0  0.6594E-01  0  0.6443E-01  0  0.6807E-01  0  0.4621E-01  0  0.4021E-01
   (  1,  2, 43)  (  1,  1, 40)  (  1,  2, 38)  (  1,  1, 35)  (  1,  1, 32)
  0  0.2409E-01  0  0.1142E-01  0  0.1254E-01  0  0.1366E-01  0  0.1342E-01
   (  1,  3, 30)  (  1,  7, 78)  (  1,  7, 80)  (  1,  5, 82)  (  1,  5, 85)
  0  0.1196E-01  0  0.1230E-01  0  0.1710E-01  0  0.1375E-01  0  0.6649E-02
   (  1,  3, 88)  (  1,  1,100)  (  1,  7, 98)  (  1,  1,100)  (  1,  3,100)
  1  0.6087E-01  0  0.5396E-01  0  0.6281E-01  0  0.5818E-01  0  0.5855E-01
   (  1,  4, 50)  (  1,  2, 54)  (  1,  1, 52)  (  1,  2, 49)  (  1,  1, 44)
  0  0.5014E-01  0  0.4584E-01  0  0.4736E-01  0  0.3326E-01  0  0.2498E-01
   (  1,  1, 41)  (  1,  1, 39)  (  1,  2, 37)  (  1,  2, 34)  (  1,  2, 31)
  0  0.1352E-01  0  0.7981E-02  0  0.1035E-01  0  0.9376E-02  0  0.8232E-02
   (  1,  2, 28)  (  1,  7, 76)  (  1,  7, 80)  (  1,  6, 81)  (  1,  6, 84)
  0  0.7722E-02  0  0.8243E-02  0  0.1293E-01  0  0.9929E-02  0  0.6305E-02
   (  1,  5, 87)  (  1,  3, 90)  (  1,  3, 99)  (  1,  1,100)  (  1,  7, 99)
  1  0.4043E-01  0  0.3538E-01  0  0.4296E-01  0  0.3917E-01  0  0.4169E-01
   (  1,  4, 49)  (  1,  4, 49)  (  1,  1, 51)  (  1,  2, 48)  (  1,  1, 43)
  0  0.3407E-01  0  0.3040E-01  0  0.3185E-01  0  0.2121E-01  0  0.1432E-01
   (  1,  1, 40)  (  1,  1, 38)  (  1,  1, 35)  (  1,  2, 33)  (  1,  2, 30)
  0  0.8287E-02  0  0.5759E-02  0  0.7498E-02  0  0.7541E-02  0  0.5367E-02
   (  1,  3, 28)  (  1,  7, 75)  (  1,  7, 78)  (  1,  6, 80)  (  1,  5, 82)
  0  0.5454E-02  0  0.5724E-02  0  0.7980E-02  0  0.7195E-02  0  0.3989E-02
   (  1,  6, 85)  (  1,  3, 88)  (  1,  1, 96)  (  1,  1,100)  (  1,  6, 99)
  1  0.2746E-01  0  0.2522E-01  0  0.3067E-01  0  0.2681E-01  0  0.2743E-01
   (  1,  4, 48)  (  1,  1, 52)  (  1,  1, 50)  (  1,  2, 48)  (  1,  1, 42)
  0  0.2309E-01  0  0.2143E-01  0  0.2150E-01  0  0.1309E-01  0  0.8133E-02
   (  1,  1, 39)  (  1,  1, 37)  (  1,  1, 34)  (  1,  2, 32)  (  1,  1, 29)
  0  0.5252E-02  0  0.4390E-02  0  0.5751E-02  0  0.5318E-02  0  0.3436E-02
   (  1,  7, 71)  (  1,  7, 74)  (  1,  7, 76)  (  1,  5, 78)  (  1,  6, 81)
  0  0.3743E-02  0  0.3876E-02  0  0.4784E-02  0  0.4877E-02  0  0.2510E-02
   (  1,  4, 86)  (  1,  2, 89)  (  1,  2, 91)  (  1,  1,100)  (  1,  7, 99)
  1  0.1786E-01  0  0.1602E-01  0  0.1824E-01  0  0.1750E-01  0  0.1807E-01
   (  1,  4, 47)  (  1,  7, 44)  (  1,  1, 50)  (  1,  2, 47)  (  1,  1, 42)
  0  0.1595E-01  0  0.1365E-01  0  0.1304E-01  0  0.8314E-02  0  0.5384E-02
   (  1,  1, 39)  (  1,  1, 37)  (  1,  1, 34)  (  1,  2, 32)  (  1,  1, 29)
  0  0.3417E-02  0  0.2936E-02  0  0.3929E-02  0  0.3418E-02  0  0.2179E-02
   (  1,  7, 70)  (  1,  7, 73)  (  1,  6, 75)  (  1,  4, 77)  (  1,  6, 80)
  0  0.2374E-02  0  0.2381E-02  0  0.2707E-02  0  0.2690E-02  0  0.1680E-02
   (  1,  5, 84)  (  1,  4, 87)  (  1,  2, 90)  (  1,  1,100)  (  1,  7, 99)
  1  0.1113E-01  0  0.1033E-01  0  0.1111E-01  0  0.1083E-01  0  0.1122E-01
   (  1,  4, 47)  (  1,  1, 51)  (  1,  1, 49)  (  1,  2, 47)  (  1,  1, 42)
  0  0.9952E-02  0  0.8412E-02  0  0.7939E-02  0  0.5066E-02  0  0.3018E-02
   (  1,  1, 39)  (  1,  1, 36)  (  1,  2, 34)  (  1,  2, 31)  (  1,  2, 29)
  0  0.2168E-02  0  0.2097E-02  0  0.2714E-02  0  0.1951E-02  0  0.1368E-02
   (  1,  7, 70)  (  1,  7, 73)  (  1,  6, 75)  (  1,  3, 77)  (  1,  6, 80)
  0  0.1574E-02  0  0.1507E-02  0  0.1332E-02  0  0.1483E-02  0  0.1140E-02
   (  1,  5, 83)  (  1,  3, 86)  (  1,  3, 90)  (  1,  1,100)  (  1,  5, 99)
  1  0.7578E-02  0  0.6807E-02  0  0.7888E-02  0  0.7296E-02  0  0.7816E-02
   (  1,  4, 47)  (  1,  4, 47)  (  1,  1, 49)  (  1,  1, 46)  (  1,  1, 41)
  0  0.6438E-02  0  0.5691E-02  0  0.5489E-02  0  0.3186E-02  0  0.1848E-02
   (  1,  1, 38)  (  1,  1, 36)  (  1,  1, 33)  (  1,  2, 31)  (  1,  7, 68)
  0  0.1604E-02  0  0.1668E-02  0  0.1880E-02  0  0.1262E-02  0  0.1047E-02
   (  1,  7, 70)  (  1,  6, 72)  (  1,  5, 75)  (  1,  3, 77)  (  1,  7, 81)
  0  0.1154E-02  0  0.9973E-03  0  0.8047E-03  0  0.9431E-03  0  0.7516E-03
   (  1,  4, 84)  (  1,  3, 86)  (  1,  3, 89)  (  1,  1,100)  (  1,  5, 99)
  1  0.5143E-02  0  0.4538E-02  0  0.5535E-02  0  0.5060E-02  0  0.5067E-02
   (  1,  4, 47)  (  1,  4, 47)  (  1,  1, 49)  (  1,  1, 46)  (  1,  1, 41)
  0  0.4263E-02  0  0.3985E-02  0  0.3636E-02  0  0.2021E-02  0  0.1284E-02
   (  1,  1, 39)  (  1,  1, 36)  (  1,  1, 33)  (  1,  2, 31)  (  1,  1, 28)
  0  0.1141E-02  0  0.1044E-02  0  0.1246E-02  0  0.9140E-03  0  0.6401E-03
   (  1,  7, 70)  (  1,  7, 72)  (  1,  6, 74)  (  1,  3, 76)  (  1,  6, 81)
  0  0.7289E-03  0  0.6932E-03  0  0.5719E-03  0  0.6244E-03  0  0.5028E-03
   (  1,  2, 84)  (  1,  3, 86)  (  1,  3, 90)  (  1,  1,100)  (  1,  7, 99)
  1  0.3484E-02  0  0.3229E-02  0  0.3882E-02  0  0.3468E-02  0  0.3536E-02
   (  1,  4, 46)  (  1,  4, 47)  (  1,  1, 50)  (  1,  2, 46)  (  1,  1, 41)
  0  0.2986E-02  0  0.2691E-02  0  0.2572E-02  0  0.1517E-02  0  0.8521E-03
   (  1,  1, 38)  (  1,  1, 36)  (  1,  1, 33)  (  1,  2, 31)  (  1,  2, 28)
  0  0.7756E-03  0  0.7745E-03  0  0.8737E-03  0  0.6126E-03  0  0.4566E-03
   (  1,  7, 70)  (  1,  6, 72)  (  1,  5, 74)  (  1,  2, 76)  (  1,  7, 81)
  0  0.5143E-03  0  0.4887E-03  0  0.3895E-03  0  0.4304E-03  0  0.3548E-03
   (  1,  5, 83)  (  1,  3, 86)  (  1,  3, 90)  (  1,  3, 96)  (  1,  3, 99)
  1  0.2472E-02  0  0.2207E-02  0  0.2690E-02  0  0.2453E-02  0  0.2487E-02
   (  1,  4, 47)  (  1,  4, 47)  (  1,  1, 49)  (  1,  1, 46)  (  1,  1, 41)
  0  0.2061E-02  0  0.1891E-02  0  0.1716E-02  0  0.1000E-02  0  0.6254E-03
   (  1,  1, 38)  (  1,  1, 36)  (  1,  1, 33)  (  1,  2, 31)  (  1,  2, 28)
  0  0.5334E-03  0  0.5301E-03  0  0.6083E-03  0  0.4222E-03  0  0.3172E-03
   (  1,  7, 70)  (  1,  7, 72)  (  1,  6, 74)  (  1,  3, 76)  (  1,  6, 81)
  0  0.3593E-03  0  0.3229E-03  0  0.2654E-03  0  0.2951E-03  0  0.2445E-03
   (  1,  2, 85)  (  1,  3, 86)  (  1,  2, 90)  (  1,  1,100)  (  1,  7, 99)
  1  0.1631E-02  0  0.1822E-02  0  0.2209E-02  0  0.1903E-02  0  0.1831E-02
   (  1,  4, 47)  (  1,  4, 47)  (  1,  7, 44)  (  1,  7, 39)  (  1,  1, 40)
  0  0.1588E-02  0  0.1384E-02  0  0.1181E-02  0  0.6734E-03  0  0.4315E-03
   (  1,  1, 38)  (  1,  1, 36)  (  1,  2, 34)  (  1,  1, 30)  (  1,  7, 67)
  0  0.4332E-03  0  0.4057E-03  0  0.4638E-03  0  0.3442E-03  0  0.2272E-03
   (  1,  7, 70)  (  1,  6, 72)  (  1,  5, 74)  (  1,  3, 76)  (  1,  7, 81)
  0  0.2579E-03  0  0.2356E-03  0  0.1776E-03  0  0.1973E-03  0  0.1953E-03
   (  1,  6, 83)  (  1,  5, 86)  (  1,  3, 90)  (  1,  2, 96)  (  1,  3, 99)
  1  0.1193E-02  0  0.1331E-02  0  0.1650E-02  0  0.1443E-02  0  0.1346E-02
   (  1,  4, 46)  (  1,  4, 47)  (  1,  7, 44)  (  1,  7, 39)  (  1,  2, 41)
  0  0.1184E-02  0  0.1004E-02  0  0.8803E-03  0  0.4888E-03  0  0.3186E-03
   (  1,  2, 39)  (  1,  1, 36)  (  1,  1, 34)  (  1,  1, 30)  (  1,  7, 67)
  0  0.3197E-03  0  0.3133E-03  0  0.3395E-03  0  0.2445E-03  0  0.1697E-03
   (  1,  7, 69)  (  1,  7, 72)  (  1,  6, 74)  (  1,  4, 76)  (  1,  6, 81)
  0  0.1901E-03  0  0.1637E-03  0  0.1278E-03  0  0.1476E-03  0  0.1482E-03
   (  1,  3, 84)  (  1,  3, 86)  (  1,  2, 90)  (  1,  1,100)  (  1,  6, 99)
  1  0.8853E-03  0  0.9805E-03  0  0.1210E-02  0  0.1075E-02  0  0.1003E-02
   (  1,  4, 46)  (  1,  4, 47)  (  1,  7, 44)  (  1,  7, 39)  (  1,  2, 41)
  0  0.8656E-03  0  0.7500E-03  0  0.6551E-03  0  0.3502E-03  0  0.2317E-03
   (  1,  2, 39)  (  1,  1, 36)  (  1,  2, 34)  (  1,  1, 30)  (  1,  7, 67)
  0  0.2363E-03  0  0.2445E-03  0  0.2503E-03  0  0.1731E-03  0  0.1276E-03
   (  1,  7, 69)  (  1,  7, 72)  (  1,  4, 74)  (  1,  5, 77)  (  1,  6, 80)
  0  0.1426E-03  0  0.1261E-03  0  0.9288E-04  0  0.1111E-03  0  0.1154E-03
   (  1,  5, 83)  (  1,  3, 86)  (  1,  3, 90)  (  1,  2, 96)  (  1,  2, 99)
  1  0.6550E-03  0  0.7240E-03  0  0.8913E-03  0  0.7929E-03  0  0.7448E-03
   (  1,  4, 46)  (  1,  4, 47)  (  1,  7, 44)  (  1,  7, 39)  (  1,  2, 41)
  0  0.6388E-03  0  0.5564E-03  0  0.4856E-03  0  0.2562E-03  0  0.1695E-03
   (  1,  2, 39)  (  1,  1, 36)  (  1,  1, 33)  (  1,  1, 30)  (  1,  7, 67)
  0  0.1766E-03  0  0.1746E-03  0  0.1825E-03  0  0.1337E-03  0  0.9558E-04
   (  1,  7, 69)  (  1,  7, 72)  (  1,  6, 74)  (  1,  3, 76)  (  1,  6, 82)
  0  0.1027E-03  0  0.9005E-04  0  0.6829E-04  0  0.7867E-04  0  0.8049E-04
   (  1,  2, 85)  (  1,  6, 86)  (  1,  3, 89)  (  1,  1,100)  (  1,  7, 99)
  1  0.4830E-03  0  0.5386E-03  0  0.6606E-03  0  0.5858E-03  0  0.5516E-03
   (  1,  4, 46)  (  1,  4, 47)  (  1,  7, 44)  (  1,  7, 39)  (  1,  2, 41)
  0  0.4757E-03  0  0.4102E-03  0  0.3558E-03  0  0.1937E-03  0  0.1231E-03
   (  1,  2, 39)  (  1,  1, 36)  (  1,  2, 34)  (  1,  1, 30)  (  1,  7, 68)
  0  0.1296E-03  0  0.1287E-03  0  0.1359E-03  0  0.9720E-04  0  0.6773E-04
   (  1,  7, 69)  (  1,  6, 72)  (  1,  6, 75)  (  1,  5, 77)  (  1,  7, 81)
  0  0.7769E-04  0  0.7098E-04  0  0.5224E-04  0  0.5817E-04  0  0.6067E-04
   (  1,  4, 83)  (  1,  3, 86)  (  1,  3, 90)  (  1,  2, 96)  (  1,  3, 99)
  1  0.3539E-03  0  0.3966E-03  0  0.4899E-03  0  0.4300E-03  0  0.3991E-03
   (  1,  4, 46)  (  1,  4, 47)  (  1,  7, 44)  (  1,  7, 39)  (  1,  2, 41)
  0  0.3515E-03  0  0.3012E-03  0  0.2589E-03  0  0.1420E-03  0  0.9514E-04
   (  1,  2, 39)  (  1,  1, 36)  (  1,  2, 34)  (  1,  1, 30)  (  1,  7, 67)
  0  0.9539E-04  0  0.9284E-04  0  0.1032E-03  0  0.7434E-04  0  0.4987E-04
   (  1,  7, 69)  (  1,  6, 71)  (  1,  6, 74)  (  1,  3, 76)  (  1,  6, 82)
  0  0.5618E-04  0  0.4728E-04  0  0.3796E-04  0  0.4349E-04  0  0.4343E-04
   (  1,  2, 85)  (  1,  5, 86)  (  1,  2, 91)  (  1,  1,100)  (  1,  7, 98)
  1  0.2633E-03  0  0.2943E-03  0  0.3613E-03  0  0.3195E-03  0  0.2983E-03
   (  1,  4, 46)  (  1,  4, 47)  (  1,  7, 44)  (  1,  7, 39)  (  1,  2, 41)
  0  0.2600E-03  0  0.2241E-03  0  0.1934E-03  0  0.1047E-03  0  0.6792E-04
   (  1,  2, 39)  (  1,  1, 36)  (  1,  2, 34)  (  1,  1, 30)  (  1,  7, 67)
  0  0.7031E-04  0  0.6938E-04  0  0.7425E-04  0  0.5285E-04  0  0.3673E-04
   (  1,  7, 69)  (  1,  7, 72)  (  1,  6, 75)  (  1,  5, 76)  (  1,  6, 80)
  0  0.4278E-04  0  0.3830E-04  0  0.2872E-04  0  0.3193E-04  0  0.3298E-04
   (  1,  4, 83)  (  1,  3, 86)  (  1,  2, 90)  (  1,  2, 96)  (  1,  3, 99)
  1  0.1931E-03  0  0.2169E-03  0  0.2662E-03  0  0.2335E-03  0  0.2166E-03
   (  1,  4, 46)  (  1,  4, 47)  (  1,  7, 44)  (  1,  7, 39)  (  1,  2, 41)
  0  0.1910E-03  0  0.1644E-03  0  0.1410E-03  0  0.7648E-04  0  0.5281E-04
   (  1,  2, 39)  (  1,  1, 36)  (  1,  1, 33)  (  1,  1, 30)  (  1,  7, 67)
  0  0.5192E-04  0  0.5063E-04  0  0.5624E-04  0  0.4063E-04  0  0.2696E-04
   (  1,  7, 69)  (  1,  6, 71)  (  1,  6, 74)  (  1,  3, 76)  (  1,  6, 82)
  0  0.3044E-04  0  0.2575E-04  0  0.2084E-04  0  0.2394E-04  0  0.2368E-04
   (  1,  2, 85)  (  1,  5, 86)  (  1,  2, 91)  (  1,  1,100)  (  1,  7, 98)
  1  0.1433E-03  0  0.1607E-03  0  0.1972E-03  0  0.1743E-03  0  0.1633E-03
   (  1,  4, 46)  (  1,  4, 47)  (  1,  7, 44)  (  1,  7, 39)  (  1,  2, 41)
  0  0.1416E-03  0  0.1220E-03  0  0.1049E-03  0  0.5744E-04  0  0.3659E-04
   (  1,  2, 39)  (  1,  1, 36)  (  1,  2, 34)  (  1,  1, 30)  (  1,  7, 67)
  0  0.3837E-04  0  0.3771E-04  0  0.4061E-04  0  0.2897E-04  0  0.2019E-04
   (  1,  7, 69)  (  1,  7, 72)  (  1,  6, 75)  (  1,  5, 76)  (  1,  6, 80)
  0  0.2330E-04  0  0.2079E-04  0  0.1572E-04  0  0.1746E-04  0  0.1790E-04
   (  1,  4, 83)  (  1,  3, 86)  (  1,  2, 90)  (  1,  2, 96)  (  1,  3, 99)
  1  0.1054E-03  0  0.1181E-03  0  0.1449E-03  0  0.1274E-03  0  0.1183E-03
   (  1,  4, 46)  (  1,  4, 47)  (  1,  7, 44)  (  1,  7, 39)  (  1,  2, 41)
  0  0.1039E-03  0  0.8937E-04  0  0.7673E-04  0  0.4170E-04  0  0.2852E-04
   (  1,  2, 39)  (  1,  1, 36)  (  1,  1, 33)  (  1,  1, 30)  (  1,  7, 67)
  0  0.2845E-04  0  0.2760E-04  0  0.3065E-04  0  0.2225E-04  0  0.1473E-04
   (  1,  7, 69)  (  1,  6, 71)  (  1,  6, 74)  (  1,  3, 76)  (  1,  6, 82)
  0  0.1664E-04  0  0.1401E-04  0  0.1132E-04  0  0.1292E-04  0  0.1292E-04
   (  1,  2, 85)  (  1,  5, 86)  (  1,  2, 91)  (  1,  1,100)  (  1,  7, 98)
  1  0.7824E-04  0  0.8762E-04  0  0.1075E-03  0  0.9500E-04  0  0.8886E-04
   (  1,  4, 46)  (  1,  4, 47)  (  1,  7, 44)  (  1,  7, 39)  (  1,  2, 41)
  0  0.7734E-04  0  0.6678E-04  0  0.5751E-04  0  0.3116E-04  0  0.2059E-04
   (  1,  2, 39)  (  1,  1, 36)  (  1,  2, 34)  (  1,  1, 30)  (  1,  7, 67)
  0  0.2066E-04  0  0.2077E-04  0  0.2213E-04  0  0.1536E-04  0  0.1085E-04
   (  1,  7, 69)  (  1,  7, 72)  (  1,  6, 75)  (  1,  6, 77)  (  1,  7, 81)
  0  0.1255E-04  0  0.1133E-04  0  0.8553E-05  0  0.9514E-05  0  0.9798E-05
   (  1,  4, 83)  (  1,  3, 86)  (  1,  2, 90)  (  1,  2, 96)  (  1,  3, 99)
  1  0.5744E-04  0  0.6473E-04  0  0.7923E-04  0  0.6936E-04  0  0.6434E-04
   (  1,  4, 46)  (  1,  4, 47)  (  1,  7, 44)  (  1,  7, 39)  (  1,  2, 41)
  0  0.5665E-04  0  0.4859E-04  0  0.4182E-04  0  0.2263E-04  0  0.1501E-04
   (  1,  2, 39)  (  1,  1, 36)  (  1,  1, 33)  (  1,  1, 30)  (  1,  7, 67)
  0  0.1570E-04  0  0.1502E-04  0  0.1678E-04  0  0.1233E-04  0  0.8045E-05
   (  1,  7, 69)  (  1,  7, 71)  (  1,  7, 74)  (  1,  4, 76)  (  1,  6, 82)
  0  0.9148E-05  0  0.7701E-05  0  0.6220E-05  0  0.7020E-05  0  0.7053E-05
   (  1,  2, 85)  (  1,  2, 87)  (  1,  2, 91)  (  1,  1,100)  (  1,  7, 98)
  1  0.4264E-04  0  0.4778E-04  0  0.5865E-04  0  0.5187E-04  0  0.4833E-04
   (  1,  4, 46)  (  1,  4, 47)  (  1,  7, 44)  (  1,  7, 39)  (  1,  2, 41)
  0  0.4209E-04  0  0.3647E-04  0  0.3131E-04  0  0.1698E-04  0  0.1115E-04
   (  1,  2, 39)  (  1,  1, 36)  (  1,  1, 33)  (  1,  1, 30)  (  1,  7, 67)
  0  0.1126E-04  0  0.1128E-04  0  0.1209E-04  0  0.8408E-05  0  0.5894E-05
   (  1,  7, 69)  (  1,  7, 72)  (  1,  6, 75)  (  1,  6, 77)  (  1,  7, 81)
  0  0.6900E-05  0  0.6192E-05  0  0.4696E-05  0  0.5191E-05  0  0.5329E-05
   (  1,  4, 83)  (  1,  3, 86)  (  1,  2, 90)  (  1,  2, 96)  (  1,  3, 99)
  1  0.3133E-04  0  0.3529E-04  0  0.4338E-04  0  0.3799E-04  0  0.3535E-04
   (  1,  4, 46)  (  1,  4, 47)  (  1,  7, 44)  (  1,  7, 39)  (  1,  2, 41)
  0  0.3115E-04  0  0.2678E-04  0  0.2294E-04  0  0.1233E-04  0  0.8440E-05
   (  1,  2, 39)  (  1,  1, 36)  (  1,  1, 33)  (  1,  1, 30)  (  1,  7, 67)
  0  0.8417E-05  0  0.8176E-05  0  0.9171E-05  0  0.6685E-05  0  0.4399E-05
   (  1,  7, 69)  (  1,  6, 71)  (  1,  6, 74)  (  1,  3, 76)  (  1,  6, 82)
  0  0.4988E-05  0  0.4199E-05  0  0.3400E-05  0  0.3860E-05  0  0.3841E-05
   (  1,  2, 85)  (  1,  2, 87)  (  1,  2, 91)  (  1,  1,100)  (  1,  7, 98)
  1  0.2325E-04  0  0.2593E-04  0  0.3179E-04  0  0.2807E-04  0  0.2623E-04
   (  1,  4, 46)  (  1,  4, 47)  (  1,  7, 44)  (  1,  7, 39)  (  1,  2, 41)
  0  0.2279E-04  0  0.1967E-04  0  0.1705E-04  0  0.9356E-05  0  0.6166E-05
   (  1,  2, 39)  (  1,  1, 36)  (  1,  2, 34)  (  1,  1, 30)  (  1,  7, 67)
  0  0.6171E-05  0  0.6183E-05  0  0.6545E-05  0  0.4579E-05  0  0.3193E-05
   (  1,  7, 69)  (  1,  7, 72)  (  1,  6, 75)  (  1,  6, 77)  (  1,  6, 80)
  0  0.3729E-05  0  0.3378E-05  0  0.2522E-05  0  0.2826E-05  0  0.2939E-05
   (  1,  4, 83)  (  1,  3, 86)  (  1,  2, 90)  (  1,  2, 96)  (  1,  3, 99)
  1  0.1701E-04  0  0.1911E-04  0  0.2331E-04  0  0.2056E-04  0  0.1924E-04
   (  1,  4, 46)  (  1,  4, 47)  (  1,  7, 44)  (  1,  7, 39)  (  1,  2, 41)
  0  0.1698E-04  0  0.1450E-04  0  0.1236E-04  0  0.6750E-05  0  0.4554E-05
   (  1,  2, 39)  (  1,  1, 36)  (  1,  1, 33)  (  1,  1, 30)  (  1,  7, 67)
  0  0.4672E-05  0  0.4465E-05  0  0.4960E-05  0  0.3618E-05  0  0.2405E-05
   (  1,  7, 69)  (  1,  6, 71)  (  1,  7, 74)  (  1,  4, 76)  (  1,  6, 82)
  0  0.2695E-05  0  0.2228E-05  0  0.1802E-05  0  0.2072E-05  0  0.2102E-05
   (  1,  2, 85)  (  1,  3, 87)  (  1,  2, 91)  (  1,  1,100)  (  1,  7, 98)
  1  0.1273E-04  0  0.1428E-04  0  0.1768E-04  0  0.1539E-04  0  0.1424E-04
   (  1,  4, 46)  (  1,  4, 47)  (  1,  7, 44)  (  1,  7, 39)  (  1,  2, 41)
  0  0.1238E-04  0  0.1087E-04  0  0.9415E-05  0  0.5081E-05  0  0.3300E-05
   (  1,  2, 39)  (  1,  1, 36)  (  1,  2, 34)  (  1,  1, 30)  (  1,  7, 68)
  0  0.3371E-05  0  0.3334E-05  0  0.3598E-05  0  0.2511E-05  0  0.1734E-05
   (  1,  7, 70)  (  1,  7, 72)  (  1,  6, 75)  (  1,  3, 76)  (  1,  7, 81)
  0  0.2049E-05  0  0.1853E-05  0  0.1412E-05  0  0.1541E-05  0  0.1562E-05
   (  1,  4, 83)  (  1,  2, 86)  (  1,  2, 90)  (  1,  2, 96)  (  1,  3, 99)
  1  0.9218E-05  0  0.1045E-04  0  0.1269E-04  0  0.1127E-04  0  0.1045E-04
   (  1,  4, 46)  (  1,  4, 47)  (  1,  7, 44)  (  1,  7, 39)  (  1,  2, 41)
  0  0.9279E-05  0  0.7868E-05  0  0.6701E-05  0  0.3640E-05  0  0.2414E-05
   (  1,  2, 39)  (  1,  1, 36)  (  1,  1, 33)  (  1,  1, 30)  (  1,  7, 67)
  0  0.2498E-05  0  0.2445E-05  0  0.2708E-05  0  0.2016E-05  0  0.1333E-05
   (  1,  7, 69)  (  1,  6, 71)  (  1,  4, 73)  (  1,  4, 76)  (  1,  6, 82)
  0  0.1479E-05  0  0.1256E-05  0  0.1003E-05  0  0.1130E-05  0  0.1159E-05
   (  1,  2, 85)  (  1,  3, 86)  (  1,  2, 91)  (  1,  3, 96)  (  1,  7, 98)
  1 -0.1155E-04  0 -0.7586E-05  0 -0.6612E-05  0 -0.6278E-05  0 -0.4709E-05
   (  1,  4, 50)  (  1,  1, 51)  (  1,  1, 53)  (  1,  1, 56)  (  1,  7, 54)
  0 -0.4920E-05  0 -0.4367E-05  0 -0.3889E-05  0 -0.3419E-05  0 -0.3575E-05
   (  1,  7, 56)  (  1,  6, 58)  (  1,  6, 61)  (  1,  3, 37)  (  1,  4, 35)
  0 -0.3307E-05  0 -0.2620E-05  0 -0.1515E-05  0 -0.8212E-06  1  0.1201E-04
   (  1,  4, 32)  (  1,  4, 29)  (  1,  7, 27)  (  1,  7, 37)  (  1,  4, 50)
  0  0.9360E-05  0  0.1021E-04  0  0.1014E-04  0  0.7866E-05  0  0.9043E-05
   (  1,  1, 51)  (  1,  1, 53)  (  1,  2, 50)  (  1,  1, 46)  (  1,  1, 44)
  0  0.8200E-05  0  0.6828E-05  0  0.6418E-05  0  0.5913E-05  0  0.4046E-05
   (  1,  2, 42)  (  1,  2, 39)  (  1,  2, 36)  (  1,  3, 34)  (  1,  3, 31)
  0  0.2264E-05  0  0.1256E-05  0  0.1211E-05  0  0.1670E-05  0  0.1459E-05
   (  1,  3, 28)  (  1,  7, 77)  (  1,  6, 79)  (  1,  6, 82)  (  1,  3, 84)
  0  0.1269E-05  0  0.1323E-05  0  0.1963E-05  0  0.1730E-05  1 -0.1159E-04
   (  1,  6, 88)  (  1,  1,100)  (  1,  6, 99)  (  1,  1,100)  (  1,  4, 50)
  0 -0.7849E-05  0 -0.7234E-05  0 -0.7246E-05  0 -0.5550E-05  0 -0.6089E-05
   (  1,  1, 51)  (  1,  1, 53)  (  1,  7, 52)  (  1,  7, 54)  (  1,  1, 44)
  0 -0.5751E-05  0 -0.5517E-05  0 -0.5074E-05  0 -0.4938E-05  0 -0.3555E-05
   (  1,  2, 42)  (  1,  3, 40)  (  1,  3, 37)  (  1,  3, 34)  (  1,  3, 31)
  0 -0.2434E-05  0 -0.1305E-05  0 -0.9088E-06  1 -0.3230E-05  0 -0.4114E-05
   (  1,  4, 29)  (  1,  6, 27)  (  1,  7, 79)  (  1,  4, 47)  (  1,  4, 46)
  0 -0.4892E-05  0 -0.3542E-05  0 -0.3225E-05  0 -0.3622E-05  0 -0.3892E-05
   (  1,  7, 44)  (  1,  7, 40)  (  1,  1, 45)  (  1,  1, 41)  (  1,  1, 36)
  0 -0.3238E-05  0 -0.1476E-05  0 -0.1053E-05  0 -0.1050E-05  0 -0.1023E-05
   (  1,  1, 34)  (  1,  2, 32)  (  1,  7, 67)  (  1,  7, 69)  (  1,  7, 72)
  0 -0.1250E-05  0 -0.7950E-06  1  0.1248E-04  0  0.9860E-05  0  0.1061E-04
   (  1,  5, 74)  (  1,  5, 77)  (  1,  4, 50)  (  1,  1, 51)  (  1,  1, 53)
  0  0.1048E-04  0  0.8357E-05  0  0.9634E-05  0  0.8503E-05  0  0.7947E-05
   (  1,  1, 48)  (  1,  1, 46)  (  1,  1, 44)  (  1,  2, 42)  (  1,  2, 39)
  0  0.6935E-05  0  0.6193E-05  0  0.4159E-05  0  0.2392E-05  0  0.1392E-05
   (  1,  2, 36)  (  1,  3, 34)  (  1,  3, 31)  (  1,  3, 28)  (  1,  7, 77)
  0  0.1377E-05  0  0.1757E-05  0  0.1410E-05  0  0.1267E-05  0  0.1459E-05
   (  1,  6, 79)  (  1,  6, 82)  (  1,  3, 84)  (  1,  3, 87)  (  1,  1,100)
  0  0.2138E-05  0  0.1986E-05  1 -0.1134E-04  0 -0.7652E-05  0 -0.7085E-05
   (  1,  6, 99)  (  1,  1,100)  (  1,  4, 50)  (  1,  1, 51)  (  1,  1, 53)
  0 -0.7150E-05  0 -0.5462E-05  0 -0.5797E-05  0 -0.5293E-05  0 -0.5022E-05
   (  1,  7, 52)  (  1,  7, 54)  (  1,  7, 56)  (  1,  2, 42)  (  1,  3, 40)
  0 -0.4620E-05  0 -0.4584E-05  0 -0.3382E-05  0 -0.2418E-05  0 -0.1355E-05
   (  1,  3, 37)  (  1,  3, 34)  (  1,  4, 32)  (  1,  4, 29)  (  1,  6, 27)
  0 -0.8458E-06  1 -0.2965E-05  0 -0.3966E-05  0 -0.4594E-05  0 -0.3381E-05
   (  1,  7, 79)  (  1,  4, 47)  (  1,  4, 46)  (  1,  7, 44)  (  1,  7, 40)
  0 -0.3044E-05  0 -0.3322E-05  0 -0.3575E-05  0 -0.3067E-05  0 -0.1449E-05
   (  1,  1, 45)  (  1,  1, 41)  (  1,  1, 37)  (  1,  1, 34)  (  1,  1, 32)
  0 -0.1110E-05  0 -0.9996E-06  1  0.1260E-04  0  0.9885E-05  0  0.1083E-04
   (  1,  7, 66)  (  1,  7, 69)  (  1,  4, 50)  (  1,  1, 51)  (  1,  1, 53)
  0  0.1051E-04  0  0.8165E-05  0  0.9276E-05  0  0.8355E-05  0  0.8063E-05
   (  1,  1, 48)  (  1,  1, 46)  (  1,  1, 44)  (  1,  2, 42)  (  1,  2, 39)
  0  0.7061E-05  0  0.6212E-05  0  0.4172E-05  0  0.2417E-05  0  0.1379E-05
   (  1,  3, 37)  (  1,  3, 34)  (  1,  3, 31)  (  1,  3, 28)  (  1,  7, 77)
  0  0.1266E-05  0  0.1641E-05  0  0.1425E-05  0  0.1334E-05  0  0.1419E-05
   (  1,  6, 79)  (  1,  4, 81)  (  1,  2, 83)  (  1,  2, 86)  (  1,  2, 90)
  0  0.2112E-05  0  0.1773E-05  1 -0.1129E-04  0 -0.7594E-05  0 -0.6979E-05
   (  1,  1,100)  (  1,  6, 99)  (  1,  4, 50)  (  1,  1, 51)  (  1,  1, 53)
  0 -0.7005E-05  0 -0.5314E-05  0 -0.5616E-05  0 -0.5216E-05  0 -0.5061E-05
   (  1,  7, 52)  (  1,  7, 54)  (  1,  7, 56)  (  1,  2, 42)  (  1,  3, 40)
  0 -0.4672E-05  0 -0.4614E-05  0 -0.3397E-05  0 -0.2446E-05  0 -0.1334E-05
   (  1,  3, 37)  (  1,  3, 34)  (  1,  3, 31)  (  1,  4, 29)  (  1,  7, 27)
  0 -0.8751E-06  1 -0.3005E-05  0 -0.3681E-05  0 -0.4267E-05  0 -0.3220E-05
   (  1,  7, 80)  (  1,  4, 48)  (  1,  4, 46)  (  1,  7, 44)  (  1,  7, 40)
  0 -0.2899E-05  0 -0.3381E-05  0 -0.3617E-05  0 -0.3029E-05  0 -0.1376E-05
   (  1,  1, 43)  (  1,  1, 41)  (  1,  1, 36)  (  1,  1, 34)  (  1,  2, 32)
  0 -0.1002E-05  0 -0.9971E-06  1  0.1262E-04  0  0.9894E-05  0  0.1078E-04
   (  1,  7, 66)  (  1,  7, 69)  (  1,  4, 50)  (  1,  1, 51)  (  1,  1, 53)
  0  0.1045E-04  0  0.8236E-05  0  0.9381E-05  0  0.8408E-05  0  0.8148E-05
   (  1,  1, 48)  (  1,  1, 46)  (  1,  1, 44)  (  1,  2, 42)  (  1,  2, 39)
  0  0.7194E-05  0  0.6344E-05  0  0.4194E-05  0  0.2418E-05  0  0.1438E-05
   (  1,  2, 36)  (  1,  3, 34)  (  1,  3, 31)  (  1,  3, 28)  (  1,  7, 77)
  0  0.1374E-05  0  0.1735E-05  0  0.1370E-05  0  0.1339E-05  0  0.1456E-05
   (  1,  6, 79)  (  1,  3, 81)  (  1,  2, 84)  (  1,  2, 87)  (  1,  1,100)
  0  0.2059E-05  0  0.2030E-05  1 -0.1123E-04  0 -0.7488E-05  0 -0.6804E-05
   (  1,  6, 99)  (  1,  1,100)  (  1,  4, 50)  (  1,  1, 51)  (  1,  1, 53)
  0 -0.6844E-05  0 -0.5237E-05  0 -0.5610E-05  0 -0.5122E-05  0 -0.4817E-05
   (  1,  7, 52)  (  1,  7, 54)  (  1,  7, 56)  (  1,  2, 42)  (  1,  3, 40)
  0 -0.4301E-05  0 -0.4282E-05  0 -0.3393E-05  0 -0.2494E-05  0 -0.1468E-05
   (  1,  3, 37)  (  1,  4, 35)  (  1,  4, 32)  (  1,  3, 29)  (  1,  6, 27)
  0 -0.8908E-06  1 -0.2855E-05  0 -0.3903E-05  0 -0.4304E-05  0 -0.3088E-05
   (  1,  7, 79)  (  1,  4, 49)  (  1,  4, 46)  (  1,  7, 44)  (  1,  7, 39)
  0 -0.2884E-05  0 -0.3046E-05  0 -0.3159E-05  0 -0.2846E-05  0 -0.1460E-05
   (  1,  1, 44)  (  1,  1, 42)  (  1,  1, 36)  (  1,  1, 34)  (  1,  2, 33)
  0 -0.1123E-05  0 -0.1068E-05  0 -0.1109E-05  0 -0.1282E-05  0 -0.7280E-06
   (  1,  7, 65)  (  1,  7, 69)  (  1,  6, 71)  (  1,  6, 74)  (  1,  6, 77)
  1  0.1242E-04  0  0.9805E-05  0  0.1051E-04  0  0.1050E-04  0  0.8423E-05
   (  1,  4, 50)  (  1,  1, 51)  (  1,  1, 53)  (  1,  1, 48)  (  1,  1, 46)
  0  0.9808E-05  0  0.8695E-05  0  0.8099E-05  0  0.7048E-05  0  0.6195E-05
   (  1,  1, 44)  (  1,  2, 42)  (  1,  2, 39)  (  1,  2, 36)  (  1,  3, 34)
  0  0.4084E-05  0  0.2340E-05  0  0.1446E-05  0  0.1466E-05  0  0.1830E-05
   (  1,  3, 31)  (  1,  3, 28)  (  1,  7, 77)  (  1,  6, 79)  (  1,  3, 81)
  0  0.1375E-05  0  0.1283E-05  0  0.1360E-05  0  0.2205E-05  0  0.2079E-05
   (  1,  3, 84)  (  1,  3, 87)  (  1,  1,100)  (  1,  6, 99)  (  1,  1,100)
  1 -0.1126E-04  0 -0.7519E-05  0 -0.6842E-05  0 -0.6887E-05  0 -0.5265E-05
   (  1,  4, 50)  (  1,  1, 51)  (  1,  1, 53)  (  1,  7, 52)  (  1,  7, 54)
  0 -0.5616E-05  0 -0.5128E-05  0 -0.4853E-05  0 -0.4391E-05  0 -0.4411E-05
   (  1,  7, 56)  (  1,  2, 42)  (  1,  3, 40)  (  1,  3, 37)  (  1,  4, 35)
  0 -0.3507E-05  0 -0.2544E-05  0 -0.1475E-05  0 -0.8791E-06  1 -0.2867E-05
   (  1,  4, 32)  (  1,  3, 29)  (  1,  6, 27)  (  1,  7, 79)  (  1,  4, 49)
  0 -0.3948E-05  0 -0.4535E-05  0 -0.3181E-05  0 -0.2938E-05  0 -0.3222E-05
   (  1,  4, 46)  (  1,  7, 44)  (  1,  7, 39)  (  1,  1, 44)  (  1,  2, 42)
  0 -0.3511E-05  0 -0.2881E-05  0 -0.1366E-05  0 -0.1023E-05  0 -0.1004E-05
   (  1,  1, 36)  (  1,  1, 34)  (  1,  2, 33)  (  1,  7, 66)  (  1,  7, 69)
  0 -0.1017E-05  0 -0.1239E-05  0 -0.7476E-06  1  0.1246E-04  0  0.9903E-05
   (  1,  6, 71)  (  1,  6, 74)  (  1,  6, 77)  (  1,  4, 50)  (  1,  1, 51)
  0  0.1067E-04  0  0.1050E-04  0  0.8382E-05  0  0.9751E-05  0  0.8741E-05
   (  1,  1, 53)  (  1,  1, 48)  (  1,  1, 46)  (  1,  1, 44)  (  1,  2, 42)
  0  0.8171E-05  0  0.7060E-05  0  0.6137E-05  0  0.4109E-05  0  0.2386E-05
   (  1,  2, 39)  (  1,  2, 36)  (  1,  3, 34)  (  1,  3, 31)  (  1,  3, 28)
  0  0.1449E-05  0  0.1440E-05  0  0.1764E-05  0  0.1358E-05  0  0.1238E-05
   (  1,  7, 77)  (  1,  6, 79)  (  1,  6, 82)  (  1,  3, 84)  (  1,  3, 87)
  0  0.1440E-05  0  0.2131E-05  0  0.2024E-05  1 -0.1125E-04  0 -0.7551E-05
   (  1,  1,100)  (  1,  6, 99)  (  1,  1,100)  (  1,  4, 50)  (  1,  1, 51)
  0 -0.6910E-05  0 -0.6948E-05  0 -0.5378E-05  0 -0.5849E-05  0 -0.5343E-05
   (  1,  1, 53)  (  1,  7, 52)  (  1,  7, 54)  (  1,  7, 56)  (  1,  2, 42)
  0 -0.5034E-05  0 -0.4570E-05  0 -0.4521E-05  0 -0.3373E-05  0 -0.2468E-05
   (  1,  3, 40)  (  1,  3, 37)  (  1,  3, 34)  (  1,  4, 32)  (  1,  4, 29)
  0 -0.1420E-05  0 -0.8828E-06  1 -0.2901E-05  0 -0.3820E-05  0 -0.4407E-05
   (  1,  6, 27)  (  1,  7, 79)  (  1,  4, 49)  (  1,  4, 46)  (  1,  7, 44)
  0 -0.3146E-05  0 -0.2759E-05  0 -0.3024E-05  0 -0.3376E-05  0 -0.3006E-05
   (  1,  7, 40)  (  1,  1, 45)  (  1,  1, 41)  (  1,  1, 37)  (  1,  1, 36)
  0 -0.1465E-05  0 -0.1123E-05  0 -0.1049E-05  0 -0.1049E-05  0 -0.1318E-05
   (  1,  2, 33)  (  1,  7, 66)  (  1,  6, 68)  (  1,  6, 71)  (  1,  6, 74)
  0 -0.7527E-06  1  0.1243E-04  0  0.9849E-05  0  0.1064E-04  0  0.1058E-04
   (  1,  6, 77)  (  1,  4, 50)  (  1,  1, 51)  (  1,  1, 53)  (  1,  1, 48)
  0  0.8434E-05  0  0.9762E-05  0  0.8694E-05  0  0.8129E-05  0  0.7029E-05
   (  1,  1, 46)  (  1,  1, 44)  (  1,  2, 42)  (  1,  2, 39)  (  1,  2, 36)
  0  0.6136E-05  0  0.4080E-05  0  0.2369E-05  0  0.1446E-05  0  0.1450E-05
   (  1,  3, 34)  (  1,  3, 31)  (  1,  3, 28)  (  1,  7, 77)  (  1,  6, 79)
  0  0.1793E-05  0  0.1375E-05  0  0.1265E-05  0  0.1292E-05  0  0.2400E-05
   (  1,  6, 82)  (  1,  3, 84)  (  1,  3, 87)  (  1,  2, 90)  (  1,  1,100)
  0  0.1887E-05  1 -0.1123E-04  0 -0.7453E-05  0 -0.6691E-05  0 -0.6691E-05
   (  1,  6, 99)  (  1,  4, 50)  (  1,  1, 51)  (  1,  1, 53)  (  1,  7, 52)
  0 -0.5087E-05  0 -0.5457E-05  0 -0.5057E-05  0 -0.4798E-05  0 -0.4409E-05
   (  1,  7, 54)  (  1,  7, 56)  (  1,  2, 42)  (  1,  3, 40)  (  1,  3, 37)
  0 -0.4416E-05  0 -0.3343E-05  0 -0.2405E-05  0 -0.1377E-05  0 -0.8391E-06
   (  1,  4, 35)  (  1,  4, 32)  (  1,  4, 29)  (  1,  6, 27)  (  1,  7, 79)
  1 -0.2861E-05  0 -0.3781E-05  0 -0.4298E-05  0 -0.3053E-05  0 -0.2967E-05
   (  1,  4, 49)  (  1,  4, 46)  (  1,  7, 44)  (  1,  7, 40)  (  1,  1, 45)
  0 -0.3155E-05  0 -0.3481E-05  0 -0.2998E-05  0 -0.1385E-05  0 -0.1012E-05
   (  1,  1, 41)  (  1,  1, 37)  (  1,  1, 36)  (  1,  2, 33)  (  1,  7, 65)
  0 -0.9145E-06  1  0.1260E-04  0  0.9837E-05  0  0.1069E-04  0  0.1046E-04
   (  1,  7, 68)  (  1,  4, 50)  (  1,  1, 51)  (  1,  1, 53)  (  1,  1, 48)
  0  0.8222E-05  0  0.9370E-05  0  0.8437E-05  0  0.8155E-05  0  0.7178E-05
   (  1,  1, 46)  (  1,  1, 44)  (  1,  2, 42)  (  1,  2, 39)  (  1,  3, 37)
  0  0.6279E-05  0  0.4199E-05  0  0.2392E-05  0  0.1413E-05  0  0.1299E-05
   (  1,  3, 34)  (  1,  3, 31)  (  1,  3, 28)  (  1,  7, 77)  (  1,  6, 79)
  0  0.1664E-05  0  0.1409E-05  0  0.1283E-05  0  0.1365E-05  0  0.1950E-05
   (  1,  3, 81)  (  1,  2, 83)  (  1,  2, 86)  (  1,  2, 90)  (  1,  2, 98)
  0  0.1857E-05  1 -0.1126E-04  0 -0.7485E-05  0 -0.6795E-05  0 -0.6853E-05
   (  1,  1,100)  (  1,  4, 50)  (  1,  1, 51)  (  1,  1, 53)  (  1,  7, 52)
  0 -0.5296E-05  0 -0.5677E-05  0 -0.5166E-05  0 -0.4911E-05  0 -0.4510E-05
   (  1,  7, 54)  (  1,  7, 56)  (  1,  2, 42)  (  1,  3, 40)  (  1,  3, 37)
  0 -0.4539E-05  0 -0.3388E-05  0 -0.2404E-05  0 -0.1310E-05  0 -0.8589E-06
   (  1,  3, 34)  (  1,  3, 31)  (  1,  4, 29)  (  1,  7, 27)  (  1,  7, 80)
  1 -0.2946E-05  0 -0.3721E-05  0 -0.4379E-05  0 -0.3213E-05  0 -0.2858E-05
   (  1,  4, 48)  (  1,  4, 46)  (  1,  7, 44)  (  1,  7, 40)  (  1,  1, 43)
  0 -0.3324E-05  0 -0.3608E-05  0 -0.3099E-05  0 -0.1421E-05  0 -0.1070E-05
   (  1,  1, 41)  (  1,  1, 36)  (  1,  1, 34)  (  1,  2, 32)  (  1,  7, 66)
  0 -0.1073E-05  0 -0.1066E-05  0 -0.1279E-05  0 -0.7161E-06  1  0.1244E-04
   (  1,  7, 69)  (  1,  7, 72)  (  1,  7, 75)  (  1,  6, 78)  (  1,  4, 50)
  0  0.9867E-05  0  0.1063E-04  0  0.1053E-04  0  0.8418E-05  0  0.9761E-05
   (  1,  1, 51)  (  1,  1, 53)  (  1,  1, 48)  (  1,  1, 46)  (  1,  1, 44)
  0  0.8761E-05  0  0.8236E-05  0  0.7158E-05  0  0.6207E-05  0  0.4144E-05
   (  1,  2, 42)  (  1,  2, 39)  (  1,  2, 36)  (  1,  3, 34)  (  1,  3, 31)
  0  0.2389E-05  0  0.1455E-05  0  0.1402E-05  0  0.1723E-05  0  0.1380E-05
   (  1,  3, 28)  (  1,  7, 77)  (  1,  6, 79)  (  1,  3, 81)  (  1,  3, 84)
  0  0.1231E-05  0  0.1338E-05  0  0.2061E-05  0  0.1960E-05  1 -0.1126E-04
   (  1,  3, 87)  (  1,  1,100)  (  1,  6, 99)  (  1,  1,100)  (  1,  4, 50)
  0 -0.7495E-05  0 -0.6805E-05  0 -0.6836E-05  0 -0.5225E-05  0 -0.5530E-05
   (  1,  1, 51)  (  1,  1, 53)  (  1,  7, 52)  (  1,  7, 54)  (  1,  7, 56)
  0 -0.5084E-05  0 -0.4917E-05  0 -0.4629E-05  0 -0.4686E-05  0 -0.3453E-05
   (  1,  2, 42)  (  1,  3, 40)  (  1,  3, 37)  (  1,  3, 34)  (  1,  3, 31)
  0 -0.2414E-05  0 -0.1287E-05  0 -0.8213E-06  1 -0.2863E-05  0 -0.3581E-05
   (  1,  4, 29)  (  1,  7, 27)  (  1,  6, 79)  (  1,  4, 48)  (  1,  4, 46)
  0 -0.4135E-05  0 -0.3057E-05  0 -0.2895E-05  0 -0.3349E-05  0 -0.3589E-05
   (  1,  7, 44)  (  1,  7, 40)  (  1,  1, 45)  (  1,  1, 41)  (  1,  1, 36)
  0 -0.2989E-05  0 -0.1265E-05  0 -0.8774E-06  1  0.1256E-04  0  0.1002E-04
   (  1,  1, 36)  (  1,  2, 32)  (  1,  7, 65)  (  1,  4, 50)  (  1,  1, 51)
  0  0.1076E-04  0  0.1052E-04  0  0.8146E-05  0  0.9153E-05  0  0.8344E-05
   (  1,  1, 53)  (  1,  1, 48)  (  1,  1, 46)  (  1,  1, 44)  (  1,  2, 42)
  0  0.8138E-05  0  0.7054E-05  0  0.5981E-05  0  0.4114E-05  0  0.2402E-05
   (  1,  2, 39)  (  1,  2, 36)  (  1,  3, 34)  (  1,  3, 31)  (  1,  3, 28)
  0  0.1338E-05  0  0.1271E-05  0  0.1689E-05  0  0.1473E-05  0  0.1285E-05
   (  1,  7, 76)  (  1,  7, 79)  (  1,  5, 81)  (  1,  2, 83)  (  1,  2, 86)
  0  0.1397E-05  0  0.2075E-05  0  0.1841E-05  1 -0.1122E-04  0 -0.7422E-05
   (  1,  2, 90)  (  1,  7, 99)  (  1,  1,100)  (  1,  4, 50)  (  1,  1, 51)
  0 -0.6672E-05  0 -0.6729E-05  0 -0.5222E-05  0 -0.5701E-05  0 -0.5214E-05
   (  1,  1, 53)  (  1,  7, 52)  (  1,  7, 54)  (  1,  7, 56)  (  1,  6, 58)
  0 -0.4921E-05  0 -0.4514E-05  0 -0.4531E-05  0 -0.3351E-05  0 -0.2400E-05
   (  1,  3, 40)  (  1,  3, 37)  (  1,  3, 34)  (  1,  3, 31)  (  1,  4, 29)
  0 -0.1319E-05  0 -0.8743E-06  1 -0.2897E-05  0 -0.3642E-05  0 -0.4288E-05
   (  1,  7, 27)  (  1,  7, 80)  (  1,  4, 48)  (  1,  4, 46)  (  1,  7, 44)
  0 -0.3269E-05  0 -0.2806E-05  0 -0.3161E-05  0 -0.3477E-05  0 -0.3034E-05
   (  1,  7, 40)  (  1,  1, 43)  (  1,  1, 41)  (  1,  1, 36)  (  1,  1, 34)
  0 -0.1407E-05  0 -0.1028E-05  0 -0.1023E-05  0 -0.1012E-05  0 -0.1209E-05
   (  1,  2, 32)  (  1,  7, 65)  (  1,  7, 69)  (  1,  7, 72)  (  1,  6, 75)
  0 -0.7092E-06  1  0.1242E-04  0  0.9844E-05  0  0.1061E-04  0  0.1056E-04
   (  1,  3, 77)  (  1,  4, 50)  (  1,  1, 51)  (  1,  1, 53)  (  1,  1, 48)
  0  0.8403E-05  0  0.9709E-05  0  0.8656E-05  0  0.8098E-05  0  0.7064E-05
   (  1,  1, 46)  (  1,  1, 44)  (  1,  2, 42)  (  1,  2, 39)  (  1,  2, 36)
  0  0.6180E-05  0  0.4106E-05  0  0.2358E-05  0  0.1437E-05  0  0.1442E-05
   (  1,  3, 34)  (  1,  3, 31)  (  1,  3, 28)  (  1,  7, 77)  (  1,  6, 79)
  0  0.1797E-05  0  0.1375E-05  0  0.1260E-05  0  0.1496E-05  0  0.2156E-05
   (  1,  3, 81)  (  1,  3, 84)  (  1,  3, 87)  (  1,  1,100)  (  1,  6, 99)
  0  0.2082E-05  1 -0.1122E-04  0 -0.7412E-05  0 -0.6679E-05  0 -0.6705E-05
   (  1,  1,100)  (  1,  4, 50)  (  1,  1, 51)  (  1,  1, 53)  (  1,  7, 52)
  0 -0.5102E-05  0 -0.5425E-05  0 -0.5045E-05  0 -0.4792E-05  0 -0.4349E-05
   (  1,  7, 54)  (  1,  7, 56)  (  1,  2, 42)  (  1,  3, 40)  (  1,  3, 37)
  0 -0.4316E-05  0 -0.3342E-05  0 -0.2435E-05  0 -0.1409E-05  0 -0.8531E-06
   (  1,  4, 35)  (  1,  4, 32)  (  1,  3, 29)  (  1,  6, 27)  (  1,  7, 79)
  1 -0.2970E-05  0 -0.3925E-05  0 -0.4453E-05  0 -0.3124E-05  0 -0.3099E-05
   (  1,  4, 49)  (  1,  4, 46)  (  1,  7, 44)  (  1,  7, 39)  (  1,  1, 45)
  0 -0.3279E-05  0 -0.3476E-05  0 -0.2889E-05  0 -0.1333E-05  0 -0.1021E-05
   (  1,  1, 42)  (  1,  1, 37)  (  1,  1, 34)  (  1,  2, 33)  (  1,  7, 67)
  0 -0.9276E-06  1  0.1262E-04  0  0.9844E-05  0  0.1064E-04  0  0.1037E-04
   (  1,  7, 69)  (  1,  4, 50)  (  1,  1, 51)  (  1,  1, 53)  (  1,  1, 48)
  0  0.8229E-05  0  0.9420E-05  0  0.8378E-05  0  0.8012E-05  0  0.7026E-05
   (  1,  1, 46)  (  1,  1, 44)  (  1,  2, 42)  (  1,  2, 39)  (  1,  2, 36)
  0  0.6202E-05  0  0.4137E-05  0  0.2383E-05  0  0.1388E-05  0  0.1271E-05
   (  1,  3, 34)  (  1,  3, 31)  (  1,  3, 28)  (  1,  7, 77)  (  1,  6, 79)
  0  0.1675E-05  0  0.1456E-05  0  0.1299E-05  0  0.1372E-05  0  0.2039E-05
   (  1,  4, 81)  (  1,  2, 83)  (  1,  2, 86)  (  1,  2, 90)  (  1,  1,100)
  0  0.1801E-05  1 -0.1123E-04  0 -0.7489E-05  0 -0.6850E-05  0 -0.6938E-05
   (  1,  6, 99)  (  1,  4, 50)  (  1,  1, 51)  (  1,  1, 53)  (  1,  7, 52)
  0 -0.5354E-05  0 -0.5755E-05  0 -0.5230E-05  0 -0.4992E-05  0 -0.4590E-05
   (  1,  7, 54)  (  1,  7, 56)  (  1,  2, 42)  (  1,  3, 40)  (  1,  3, 37)
  0 -0.4582E-05  0 -0.3376E-05  0 -0.2425E-05  0 -0.1340E-05  0 -0.8845E-06
   (  1,  3, 34)  (  1,  3, 31)  (  1,  4, 29)  (  1,  7, 27)  (  1,  7, 80)
  1 -0.2906E-05  0 -0.3611E-05  0 -0.4190E-05  0 -0.3139E-05  0 -0.2739E-05
   (  1,  4, 48)  (  1,  4, 46)  (  1,  7, 44)  (  1,  7, 40)  (  1,  1, 43)
  0 -0.3101E-05  0 -0.3310E-05  0 -0.2946E-05  0 -0.1536E-05  0 -0.1068E-05
   (  1,  1, 41)  (  1,  1, 36)  (  1,  1, 34)  (  1,  2, 32)  (  1,  7, 66)
  0 -0.1098E-05  0 -0.1106E-05  0 -0.1270E-05  0 -0.7286E-06  1  0.1242E-04
   (  1,  7, 68)  (  1,  7, 72)  (  1,  6, 75)  (  1,  6, 78)  (  1,  4, 50)
  0  0.9830E-05  0  0.1054E-04  0  0.1049E-04  0  0.8379E-05  0  0.9683E-05
   (  1,  1, 51)  (  1,  1, 53)  (  1,  1, 48)  (  1,  1, 46)  (  1,  1, 44)
  0  0.8617E-05  0  0.8082E-05  0  0.7052E-05  0  0.6129E-05  0  0.4047E-05
   (  1,  2, 42)  (  1,  2, 39)  (  1,  2, 36)  (  1,  3, 34)  (  1,  3, 31)
  0  0.2350E-05  0  0.1443E-05  0  0.1444E-05  0  0.1785E-05  0  0.1365E-05
   (  1,  3, 28)  (  1,  7, 77)  (  1,  6, 79)  (  1,  3, 81)  (  1,  3, 84)
  0  0.1255E-05  0  0.1282E-05  0  0.2367E-05  0  0.1907E-05  1 -0.1124E-04
   (  1,  3, 87)  (  1,  2, 90)  (  1,  1,100)  (  1,  6, 99)  (  1,  4, 50)
  0 -0.7496E-05  0 -0.6812E-05  0 -0.6847E-05  0 -0.5226E-05  0 -0.5596E-05
   (  1,  1, 51)  (  1,  1, 53)  (  1,  7, 52)  (  1,  7, 54)  (  1,  7, 56)
  0 -0.5147E-05  0 -0.4885E-05  0 -0.4449E-05  0 -0.4388E-05  0 -0.3311E-05
   (  1,  2, 42)  (  1,  3, 40)  (  1,  3, 37)  (  1,  3, 34)  (  1,  4, 32)
  0 -0.2426E-05  0 -0.1412E-05  0 -0.8613E-06  1 -0.2900E-05  0 -0.3840E-05
   (  1,  4, 29)  (  1,  6, 27)  (  1,  7, 79)  (  1,  4, 49)  (  1,  4, 46)
  0 -0.4377E-05  0 -0.3110E-05  0 -0.2926E-05  0 -0.3147E-05  0 -0.3412E-05
   (  1,  7, 44)  (  1,  7, 40)  (  1,  1, 45)  (  1,  1, 41)  (  1,  1, 37)
  0 -0.3083E-05  0 -0.1426E-05  0 -0.1050E-05  0 -0.1004E-05  0 -0.1035E-05
   (  1,  1, 36)  (  1,  2, 33)  (  1,  7, 65)  (  1,  7, 69)  (  1,  7, 72)
  0 -0.1238E-05  0 -0.7294E-06  1  0.1246E-04  0  0.9850E-05  0  0.1056E-04
   (  1,  7, 75)  (  1,  6, 77)  (  1,  4, 50)  (  1,  1, 51)  (  1,  1, 53)
  0  0.1051E-04  0  0.8404E-05  0  0.9717E-05  0  0.8625E-05  0  0.8164E-05
   (  1,  1, 48)  (  1,  1, 46)  (  1,  1, 44)  (  1,  2, 42)  (  1,  2, 39)
  0  0.7100E-05  0  0.6134E-05  0  0.4088E-05  0  0.2389E-05  0  0.1448E-05
   (  1,  2, 36)  (  1,  3, 34)  (  1,  3, 31)  (  1,  3, 28)  (  1,  7, 77)
  0  0.1435E-05  0  0.1769E-05  0  0.1363E-05  0  0.1247E-05  0  0.1291E-05
   (  1,  6, 79)  (  1,  3, 81)  (  1,  3, 84)  (  1,  3, 87)  (  1,  3, 90)
  0  0.2316E-05  0  0.1878E-05  1 -0.1126E-04  0 -0.7544E-05  0 -0.6843E-05
   (  1,  1,100)  (  1,  6, 99)  (  1,  4, 50)  (  1,  1, 51)  (  1,  1, 53)
  0 -0.6814E-05  0 -0.5188E-05  0 -0.5514E-05  0 -0.5068E-05  0 -0.4858E-05
   (  1,  7, 52)  (  1,  7, 54)  (  1,  7, 56)  (  1,  2, 42)  (  1,  3, 40)
  0 -0.4511E-05  0 -0.4486E-05  0 -0.3345E-05  0 -0.2406E-05  0 -0.1359E-05
   (  1,  3, 37)  (  1,  3, 34)  (  1,  4, 32)  (  1,  4, 29)  (  1,  6, 27)
  0 -0.8360E-06  1 -0.2834E-05  0 -0.3754E-05  0 -0.4333E-05  0 -0.3189E-05
   (  1,  7, 79)  (  1,  4, 49)  (  1,  4, 46)  (  1,  7, 44)  (  1,  7, 40)
  0 -0.2989E-05  0 -0.3336E-05  0 -0.3524E-05  0 -0.3030E-05  0 -0.1389E-05
   (  1,  1, 45)  (  1,  1, 41)  (  1,  1, 37)  (  1,  1, 36)  (  1,  1, 32)
  0 -0.1033E-05  0 -0.9620E-06  1  0.1260E-04  0  0.9871E-05  0  0.1068E-04
   (  1,  7, 65)  (  1,  7, 69)  (  1,  4, 50)  (  1,  1, 51)  (  1,  1, 53)
  0  0.1036E-04  0  0.8135E-05  0  0.9317E-05  0  0.8386E-05  0  0.8110E-05
   (  1,  1, 48)  (  1,  1, 46)  (  1,  1, 44)  (  1,  2, 42)  (  1,  2, 39)
  0  0.7147E-05  0  0.6259E-05  0  0.4201E-05  0  0.2399E-05  0  0.1404E-05
   (  1,  3, 37)  (  1,  3, 34)  (  1,  3, 31)  (  1,  3, 28)  (  1,  7, 77)
  0  0.1297E-05  0  0.1657E-05  0  0.1390E-05  0  0.1265E-05  0  0.1348E-05
   (  1,  6, 79)  (  1,  4, 81)  (  1,  2, 83)  (  1,  2, 86)  (  1,  2, 90)
  0  0.1948E-05  0  0.1859E-05  1 -0.1127E-04  0 -0.7492E-05  0 -0.6750E-05
   (  1,  2, 98)  (  1,  1,100)  (  1,  4, 50)  (  1,  1, 51)  (  1,  1, 53)
  0 -0.6750E-05  0 -0.5220E-05  0 -0.5626E-05  0 -0.5167E-05  0 -0.4943E-05
   (  1,  7, 52)  (  1,  7, 54)  (  1,  7, 56)  (  1,  2, 42)  (  1,  3, 40)
  0 -0.4552E-05  0 -0.4532E-05  0 -0.3355E-05  0 -0.2402E-05  0 -0.1331E-05
   (  1,  3, 37)  (  1,  3, 34)  (  1,  3, 31)  (  1,  4, 29)  (  1,  7, 27)
  0 -0.8701E-06  1 -0.2829E-05  0 -0.3657E-05  0 -0.4179E-05  0 -0.3095E-05
   (  1,  6, 79)  (  1,  4, 48)  (  1,  4, 46)  (  1,  7, 44)  (  1,  7, 40)
  0 -0.2807E-05  0 -0.3067E-05  0 -0.3318E-05  0 -0.2993E-05  0 -0.1352E-05
   (  1,  1, 45)  (  1,  1, 41)  (  1,  1, 36)  (  1,  1, 36)  (  1,  1, 32)
  0 -0.9709E-06  1  0.1264E-04  0  0.1010E-04  0  0.1080E-04  0  0.1047E-04
   (  1,  7, 65)  (  1,  4, 50)  (  1,  1, 51)  (  1,  1, 53)  (  1,  1, 48)
  0  0.8163E-05  0  0.9171E-05  0  0.8311E-05  0  0.8241E-05  0  0.7285E-05
   (  1,  1, 46)  (  1,  1, 44)  (  1,  2, 42)  (  1,  2, 39)  (  1,  2, 36)
  0  0.6242E-05  0  0.4219E-05  0  0.2425E-05  0  0.1347E-05  0  0.1269E-05
   (  1,  3, 34)  (  1,  3, 31)  (  1,  3, 28)  (  1,  7, 76)  (  1,  7, 79)
  0  0.1656E-05  0  0.1451E-05  0  0.1286E-05  0  0.1386E-05  0  0.2031E-05
   (  1,  5, 81)  (  1,  2, 83)  (  1,  2, 86)  (  1,  2, 90)  (  1,  7, 99)
  0  0.1849E-05  1 -0.1127E-04  0 -0.7484E-05  0 -0.6795E-05  0 -0.6867E-05
   (  1,  1,100)  (  1,  4, 50)  (  1,  1, 51)  (  1,  1, 53)  (  1,  7, 52)
  0 -0.5301E-05  0 -0.5747E-05  0 -0.5283E-05  0 -0.5062E-05  0 -0.4646E-05
   (  1,  7, 54)  (  1,  7, 56)  (  1,  6, 58)  (  1,  3, 40)  (  1,  3, 37)
  0 -0.4617E-05  0 -0.3423E-05  0 -0.2451E-05  0 -0.1361E-05  0 -0.8901E-06
   (  1,  3, 34)  (  1,  3, 31)  (  1,  4, 29)  (  1,  7, 27)  (  1,  7, 80)
  1 -0.2902E-05  0 -0.3721E-05  0 -0.4282E-05  0 -0.3099E-05  0 -0.2771E-05
   (  1,  4, 48)  (  1,  4, 46)  (  1,  7, 44)  (  1,  7, 40)  (  1,  1, 45)
  0 -0.3169E-05  0 -0.3472E-05  0 -0.2914E-05  0 -0.1412E-05  0 -0.1043E-05
   (  1,  1, 41)  (  1,  1, 36)  (  1,  1, 34)  (  1,  2, 32)  (  1,  7, 66)
  0 -0.1076E-05  0 -0.1062E-05  0 -0.1224E-05  0 -0.7152E-06  1  0.1239E-04
   (  1,  7, 68)  (  1,  7, 72)  (  1,  7, 75)  (  1,  7, 78)  (  1,  4, 50)
  0  0.9776E-05  0  0.1045E-04  0  0.1043E-04  0  0.8309E-05  0  0.9585E-05
   (  1,  1, 51)  (  1,  1, 53)  (  1,  1, 48)  (  1,  1, 46)  (  1,  1, 44)
  0  0.8527E-05  0  0.8029E-05  0  0.7023E-05  0  0.6120E-05  0  0.4067E-05
   (  1,  2, 42)  (  1,  2, 39)  (  1,  2, 36)  (  1,  3, 34)  (  1,  3, 31)
  0  0.2336E-05  0  0.1422E-05  0  0.1405E-05  0  0.1742E-05  0  0.1366E-05
   (  1,  3, 28)  (  1,  7, 77)  (  1,  6, 79)  (  1,  3, 81)  (  1,  3, 84)
  0  0.1232E-05  0  0.1389E-05  0  0.2081E-05  0  0.2009E-05  1 -0.1122E-04
   (  1,  3, 87)  (  1,  1,100)  (  1,  6, 99)  (  1,  1,100)  (  1,  4, 50)
  0 -0.7450E-05  0 -0.6771E-05  0 -0.6845E-05  0 -0.5221E-05  0 -0.5571E-05
   (  1,  1, 51)  (  1,  1, 53)  (  1,  7, 52)  (  1,  7, 54)  (  1,  7, 56)
  0 -0.5079E-05  0 -0.4872E-05  0 -0.4533E-05  0 -0.4544E-05  0 -0.3330E-05
   (  1,  2, 42)  (  1,  3, 40)  (  1,  3, 37)  (  1,  3, 34)  (  1,  4, 32)
  0 -0.2383E-05  0 -0.1325E-05  0 -0.8261E-06  1 -0.2875E-05  0 -0.3734E-05
   (  1,  4, 29)  (  1,  6, 27)  (  1,  7, 79)  (  1,  4, 49)  (  1,  4, 46)
  0 -0.4232E-05  0 -0.3042E-05  0 -0.2898E-05  0 -0.3157E-05  0 -0.3455E-05
   (  1,  7, 44)  (  1,  7, 40)  (  1,  1, 45)  (  1,  1, 41)  (  1,  1, 37)
  0 -0.2982E-05  0 -0.1383E-05  0 -0.1003E-05  0 -0.9371E-06  1  0.1262E-04
   (  1,  1, 36)  (  1,  1, 32)  (  1,  7, 66)  (  1,  7, 69)  (  1,  4, 50)
  0  0.9887E-05  0  0.1074E-04  0  0.1049E-04  0  0.8350E-05  0  0.9562E-05
   (  1,  1, 51)  (  1,  1, 53)  (  1,  1, 48)  (  1,  1, 46)  (  1,  1, 44)
  0  0.8459E-05  0  0.8101E-05  0  0.7152E-05  0  0.6321E-05  0  0.4185E-05
   (  1,  2, 42)  (  1,  2, 39)  (  1,  2, 36)  (  1,  3, 34)  (  1,  3, 31)
  0  0.2395E-05  0  0.1417E-05  0  0.1330E-05  0  0.1699E-05  0  0.1405E-05
   (  1,  3, 28)  (  1,  7, 77)  (  1,  6, 79)  (  1,  3, 81)  (  1,  2, 83)
  0  0.1299E-05  0  0.1363E-05  0  0.2134E-05  0  0.1828E-05  1 -0.1128E-04
   (  1,  3, 87)  (  1,  2, 90)  (  1,  1,100)  (  1,  6, 99)  (  1,  4, 50)
  0 -0.7558E-05  0 -0.6876E-05  0 -0.6884E-05  0 -0.5343E-05  0 -0.5808E-05
   (  1,  1, 51)  (  1,  1, 53)  (  1,  7, 52)  (  1,  7, 54)  (  1,  7, 56)
  0 -0.5321E-05  0 -0.5086E-05  0 -0.4667E-05  0 -0.4641E-05  0 -0.3442E-05
   (  1,  6, 58)  (  1,  3, 40)  (  1,  3, 37)  (  1,  3, 34)  (  1,  3, 31)
  0 -0.2462E-05  0 -0.1360E-05  0 -0.8863E-06  1 -0.2846E-05  0 -0.3731E-05
   (  1,  4, 29)  (  1,  7, 27)  (  1,  7, 80)  (  1,  4, 48)  (  1,  4, 46)
  0 -0.4216E-05  0 -0.3121E-05  0 -0.2837E-05  0 -0.3248E-05  0 -0.3346E-05
   (  1,  7, 44)  (  1,  7, 40)  (  1,  1, 45)  (  1,  1, 41)  (  1,  1, 36)
  0 -0.3025E-05  0 -0.1451E-05  0 -0.1004E-05  0 -0.9704E-06  1  0.1258E-04
   (  1,  1, 36)  (  1,  1, 32)  (  1,  7, 67)  (  1,  7, 69)  (  1,  4, 50)
  0  0.9834E-05  0  0.1069E-04  0  0.1043E-04  0  0.8173E-05  0  0.9351E-05
   (  1,  1, 51)  (  1,  1, 53)  (  1,  1, 48)  (  1,  1, 46)  (  1,  1, 44)
  0  0.8356E-05  0  0.8039E-05  0  0.7115E-05  0  0.6268E-05  0  0.4170E-05
   (  1,  2, 42)  (  1,  2, 39)  (  1,  2, 36)  (  1,  3, 34)  (  1,  3, 31)
  0  0.2400E-05  0  0.1413E-05  0  0.1370E-05  0  0.1756E-05  0  0.1373E-05
   (  1,  3, 28)  (  1,  7, 77)  (  1,  6, 79)  (  1,  3, 81)  (  1,  2, 84)
  0  0.1361E-05  0  0.1433E-05  0  0.2058E-05  0  0.1730E-05  1 -0.1122E-04
   (  1,  3, 87)  (  1,  2, 90)  (  1,  1,100)  (  1,  6, 99)  (  1,  4, 50)
  0 -0.7482E-05  0 -0.6773E-05  0 -0.6847E-05  0 -0.5194E-05  0 -0.5561E-05
   (  1,  1, 51)  (  1,  1, 53)  (  1,  7, 52)  (  1,  7, 54)  (  1,  7, 56)
  0 -0.5086E-05  0 -0.4889E-05  0 -0.4529E-05  0 -0.4567E-05  0 -0.3388E-05
   (  1,  2, 42)  (  1,  3, 40)  (  1,  3, 37)  (  1,  3, 34)  (  1,  3, 31)
  0 -0.2390E-05  0 -0.1290E-05  0 -0.8709E-06  1 -0.3110E-05  0 -0.3645E-05
   (  1,  4, 29)  (  1,  7, 27)  (  1,  6, 79)  (  1,  4, 48)  (  1,  4, 46)
  0 -0.4279E-05  0 -0.3282E-05  0 -0.3103E-05  0 -0.3455E-05  0 -0.3678E-05
   (  1,  7, 44)  (  1,  7, 40)  (  1,  1, 43)  (  1,  1, 41)  (  1,  1, 36)
  0 -0.3059E-05  0 -0.1398E-05  0 -0.9316E-06  1  0.1260E-04  0  0.1013E-04
   (  1,  2, 37)  (  1,  2, 32)  (  1,  7, 67)  (  1,  4, 50)  (  1,  1, 51)
  0  0.1085E-04  0  0.1049E-04  0  0.8140E-05  0  0.9232E-05  0  0.8418E-05
   (  1,  1, 53)  (  1,  1, 48)  (  1,  1, 46)  (  1,  1, 44)  (  1,  2, 42)
  0  0.8369E-05  0  0.7334E-05  0  0.6205E-05  0  0.4236E-05  0  0.2491E-05
   (  1,  2, 39)  (  1,  4, 37)  (  1,  3, 34)  (  1,  3, 31)  (  1,  3, 28)
  0  0.1379E-05  0  0.1279E-05  0  0.1637E-05  0  0.1420E-05  0  0.1277E-05
   (  1,  7, 76)  (  1,  7, 79)  (  1,  5, 81)  (  1,  2, 83)  (  1,  2, 86)
  0  0.1380E-05  0  0.2108E-05  0  0.1793E-05  1 -0.1124E-04  0 -0.7437E-05
   (  1,  2, 90)  (  1,  1,100)  (  1,  6, 99)  (  1,  4, 50)  (  1,  1, 51)
  0 -0.6694E-05  0 -0.6717E-05  0 -0.5202E-05  0 -0.5631E-05  0 -0.5177E-05
   (  1,  1, 53)  (  1,  7, 52)  (  1,  7, 54)  (  1,  7, 56)  (  1,  2, 42)
  0 -0.4984E-05  0 -0.4596E-05  0 -0.4574E-05  0 -0.3390E-05  0 -0.2434E-05
   (  1,  3, 40)  (  1,  3, 37)  (  1,  3, 34)  (  1,  3, 31)  (  1,  4, 29)
  0 -0.1337E-05  0 -0.8865E-06  1 -0.2937E-05  0 -0.3735E-05  0 -0.4290E-05
   (  1,  7, 27)  (  1,  7, 80)  (  1,  4, 48)  (  1,  4, 46)  (  1,  7, 44)
  0 -0.3192E-05  0 -0.2853E-05  0 -0.3278E-05  0 -0.3498E-05  0 -0.3002E-05
   (  1,  7, 40)  (  1,  1, 43)  (  1,  1, 41)  (  1,  1, 36)  (  1,  1, 34)
  0 -0.1382E-05  0 -0.9558E-06  1  0.1265E-04  0  0.1015E-04  0  0.1082E-04
   (  1,  2, 32)  (  1,  7, 66)  (  1,  4, 50)  (  1,  1, 51)  (  1,  1, 53)
  0  0.1042E-04  0  0.8100E-05  0  0.9050E-05  0  0.8168E-05  0  0.8199E-05
   (  1,  1, 48)  (  1,  1, 46)  (  1,  1, 44)  (  1,  2, 42)  (  1,  2, 39)
  0  0.7267E-05  0  0.6200E-05  0  0.4210E-05  0  0.2439E-05  0  0.1332E-05
   (  1,  4, 37)  (  1,  3, 34)  (  1,  3, 31)  (  1,  3, 28)  (  1,  7, 76)
  0  0.1255E-05  0  0.1630E-05  0  0.1436E-05  0  0.1297E-05  0  0.1402E-05
   (  1,  7, 79)  (  1,  4, 81)  (  1,  2, 83)  (  1,  2, 86)  (  1,  2, 90)
  0  0.2108E-05  0  0.1788E-05  1 -0.1127E-04  0 -0.7491E-05  0 -0.6743E-05
   (  1,  1,100)  (  1,  6, 99)  (  1,  4, 50)  (  1,  1, 51)  (  1,  1, 53)
  0 -0.6751E-05  0 -0.5229E-05  0 -0.5639E-05  0 -0.5130E-05  0 -0.4896E-05
   (  1,  7, 52)  (  1,  7, 54)  (  1,  7, 56)  (  1,  2, 42)  (  1,  3, 40)
  0 -0.4538E-05  0 -0.4529E-05  0 -0.3358E-05  0 -0.2395E-05  0 -0.1316E-05
   (  1,  3, 37)  (  1,  3, 34)  (  1,  3, 31)  (  1,  4, 29)  (  1,  7, 27)
  0 -0.8644E-06  1 -0.2896E-05  0 -0.3674E-05  0 -0.4329E-05  0 -0.3154E-05
   (  1,  6, 79)  (  1,  4, 48)  (  1,  4, 46)  (  1,  7, 44)  (  1,  7, 40)
  0 -0.2795E-05  0 -0.3366E-05  0 -0.3543E-05  0 -0.3087E-05  0 -0.1355E-05
   (  1,  1, 43)  (  1,  1, 41)  (  1,  1, 36)  (  1,  1, 34)  (  1,  2, 32)
  0 -0.9413E-06  1  0.1256E-04  0  0.9994E-05  0  0.1069E-04  0  0.1044E-04
   (  1,  7, 65)  (  1,  4, 50)  (  1,  1, 51)  (  1,  1, 53)  (  1,  1, 48)
  0  0.8106E-05  0  0.9091E-05  0  0.8235E-05  0  0.8205E-05  0  0.7230E-05
   (  1,  1, 46)  (  1,  1, 44)  (  1,  2, 42)  (  1,  2, 39)  (  1,  2, 36)
  0  0.6124E-05  0  0.4168E-05  0  0.2454E-05  0  0.1355E-05  0  0.1309E-05
   (  1,  3, 34)  (  1,  3, 31)  (  1,  3, 28)  (  1,  7, 77)  (  1,  6, 79)
  0  0.1654E-05  0  0.1373E-05  0  0.1272E-05  0  0.1382E-05  0  0.2166E-05
   (  1,  3, 81)  (  1,  2, 83)  (  1,  2, 86)  (  1,  2, 90)  (  1,  1,100)
  0  0.1791E-05  1 -0.1126E-04  0 -0.7484E-05  0 -0.6821E-05  0 -0.6924E-05
   (  1,  6, 99)  (  1,  4, 50)  (  1,  1, 51)  (  1,  1, 53)  (  1,  7, 52)
  0 -0.5403E-05  0 -0.5837E-05  0 -0.5287E-05  0 -0.5022E-05  0 -0.4604E-05
   (  1,  7, 54)  (  1,  7, 56)  (  1,  6, 58)  (  1,  3, 40)  (  1,  3, 37)
  0 -0.4569E-05  0 -0.3369E-05  0 -0.2428E-05  0 -0.1349E-05  0 -0.8795E-06
   (  1,  3, 34)  (  1,  3, 31)  (  1,  4, 29)  (  1,  7, 27)  (  1,  6, 79)
  1 -0.2845E-05  0 -0.3791E-05  0 -0.4264E-05  0 -0.3095E-05  0 -0.2614E-05
   (  1,  4, 48)  (  1,  4, 46)  (  1,  7, 44)  (  1,  7, 40)  (  1,  1, 45)
  0 -0.3149E-05  0 -0.3420E-05  0 -0.2978E-05  0 -0.1378E-05  0 -0.9989E-06
   (  1,  1, 41)  (  1,  1, 36)  (  1,  1, 36)  (  1,  1, 32)  (  1,  7, 66)
  1  0.1258E-04  0  0.1007E-04  0  0.1074E-04  0  0.1037E-04  0  0.8016E-05
   (  1,  4, 50)  (  1,  1, 51)  (  1,  1, 53)  (  1,  1, 48)  (  1,  1, 46)
  0  0.8992E-05  0  0.8213E-05  0  0.8198E-05  0  0.7219E-05  0  0.6187E-05
   (  1,  1, 44)  (  1,  2, 42)  (  1,  2, 39)  (  1,  2, 36)  (  1,  3, 34)
  0  0.4201E-05  0  0.2416E-05  0  0.1336E-05  0  0.1254E-05  0  0.1623E-05
   (  1,  3, 31)  (  1,  3, 28)  (  1,  7, 76)  (  1,  7, 79)  (  1,  4, 81)
  0  0.1417E-05  0  0.1276E-05  0  0.1378E-05  0  0.2072E-05  0  0.1772E-05
   (  1,  2, 83)  (  1,  2, 86)  (  1,  2, 90)  (  1,  1,100)  (  1,  6, 99)
  1 -0.1127E-04  0 -0.7558E-05  0 -0.6935E-05  0 -0.7001E-05  0 -0.5423E-05
   (  1,  4, 50)  (  1,  1, 51)  (  1,  1, 53)  (  1,  7, 52)  (  1,  7, 54)
  0 -0.5870E-05  0 -0.5371E-05  0 -0.5071E-05  0 -0.4658E-05  0 -0.4658E-05
   (  1,  7, 56)  (  1,  6, 58)  (  1,  3, 40)  (  1,  3, 37)  (  1,  3, 34)
  0 -0.3448E-05  0 -0.2456E-05  0 -0.1359E-05  0 -0.9033E-06  1 -0.3023E-05
   (  1,  3, 31)  (  1,  4, 29)  (  1,  7, 27)  (  1,  7, 80)  (  1,  4, 48)
  0 -0.3644E-05  0 -0.4212E-05  0 -0.3150E-05  0 -0.2817E-05  0 -0.3108E-05
   (  1,  4, 46)  (  1,  7, 44)  (  1,  7, 40)  (  1,  1, 43)  (  1,  1, 41)
  0 -0.3354E-05  0 -0.3072E-05  0 -0.1530E-05  0 -0.1068E-05  0 -0.1098E-05
   (  1,  1, 36)  (  1,  1, 34)  (  1,  2, 32)  (  1,  7, 66)  (  1,  6, 68)
  0 -0.1114E-05  0 -0.1323E-05  0 -0.7373E-06  1  0.1241E-04  0  0.9874E-05
   (  1,  7, 72)  (  1,  6, 75)  (  1,  6, 78)  (  1,  4, 50)  (  1,  1, 51)
  0  0.1066E-04  0  0.1059E-04  0  0.8471E-05  0  0.9792E-05  0  0.8676E-05
   (  1,  1, 53)  (  1,  1, 48)  (  1,  1, 46)  (  1,  1, 44)  (  1,  2, 42)
  0  0.8140E-05  0  0.7087E-05  0  0.6180E-05  0  0.4073E-05  0  0.2377E-05
   (  1,  2, 39)  (  1,  2, 36)  (  1,  3, 34)  (  1,  3, 31)  (  1,  3, 28)
  0  0.1445E-05  0  0.1433E-05  0  0.1773E-05  0  0.1377E-05  0  0.1258E-05
   (  1,  7, 77)  (  1,  6, 79)  (  1,  6, 82)  (  1,  3, 84)  (  1,  3, 87)
  0  0.1291E-05  0  0.2328E-05  0  0.1892E-05  1 -0.1127E-04  0 -0.7614E-05
   (  1,  3, 90)  (  1,  1,100)  (  1,  6, 99)  (  1,  4, 50)  (  1,  1, 51)
  0 -0.6956E-05  0 -0.6900E-05  0 -0.5225E-05  0 -0.5622E-05  0 -0.5213E-05
   (  1,  1, 53)  (  1,  7, 52)  (  1,  7, 54)  (  1,  7, 56)  (  1,  2, 42)
  0 -0.4940E-05  0 -0.4502E-05  0 -0.4443E-05  0 -0.3331E-05  0 -0.2441E-05
   (  1,  3, 40)  (  1,  3, 37)  (  1,  3, 34)  (  1,  4, 32)  (  1,  4, 29)
  0 -0.1409E-05  0 -0.8635E-06  1 -0.2871E-05  0 -0.3709E-05  0 -0.4313E-05
   (  1,  6, 27)  (  1,  7, 79)  (  1,  4, 49)  (  1,  4, 46)  (  1,  7, 44)
  0 -0.3102E-05  0 -0.3008E-05  0 -0.3016E-05  0 -0.3287E-05  0 -0.2926E-05
   (  1,  7, 40)  (  1,  1, 45)  (  1,  1, 41)  (  1,  1, 37)  (  1,  1, 36)
  0 -0.1485E-05  0 -0.1081E-05  0 -0.9968E-06  1  0.1264E-04  0  0.9946E-05
   (  1,  2, 33)  (  1,  7, 66)  (  1,  6, 68)  (  1,  4, 50)  (  1,  1, 51)
  0  0.1077E-04  0  0.1043E-04  0  0.8276E-05  0  0.9469E-05  0  0.8395E-05
   (  1,  1, 53)  (  1,  1, 48)  (  1,  1, 46)  (  1,  1, 44)  (  1,  2, 42)
  0  0.8105E-05  0  0.7122E-05  0  0.6245E-05  0  0.4132E-05  0  0.2412E-05
   (  1,  2, 39)  (  1,  2, 36)  (  1,  3, 34)  (  1,  3, 31)  (  1,  3, 28)
  0  0.1399E-05  0  0.1299E-05  0  0.1667E-05  0  0.1422E-05  0  0.1306E-05
   (  1,  7, 77)  (  1,  6, 79)  (  1,  4, 81)  (  1,  2, 83)  (  1,  2, 86)
  0  0.1379E-05  0  0.1990E-05  0  0.1875E-05  1 -0.1123E-04  0 -0.7516E-05
   (  1,  2, 90)  (  1,  2, 98)  (  1,  1,100)  (  1,  4, 50)  (  1,  1, 51)
  0 -0.6886E-05  0 -0.6968E-05  0 -0.5382E-05  0 -0.5801E-05  0 -0.5275E-05
   (  1,  1, 53)  (  1,  7, 52)  (  1,  7, 54)  (  1,  7, 56)  (  1,  6, 58)
  0 -0.5037E-05  0 -0.4615E-05  0 -0.4574E-05  0 -0.3375E-05  0 -0.2454E-05
   (  1,  3, 40)  (  1,  3, 37)  (  1,  3, 34)  (  1,  3, 31)  (  1,  4, 29)
  0 -0.1372E-05  0 -0.8791E-06  1 -0.2868E-05  0 -0.3730E-05  0 -0.4145E-05
   (  1,  7, 27)  (  1,  7, 80)  (  1,  4, 48)  (  1,  4, 46)  (  1,  7, 44)
  0 -0.3034E-05  0 -0.2711E-05  0 -0.3112E-05  0 -0.3271E-05  0 -0.2976E-05
   (  1,  7, 40)  (  1,  1, 45)  (  1,  1, 41)  (  1,  1, 36)  (  1,  1, 36)
  0 -0.1437E-05  0 -0.1052E-05  0 -0.1023E-05  0 -0.1090E-05  0 -0.1279E-05
   (  1,  1, 32)  (  1,  7, 66)  (  1,  7, 69)  (  1,  7, 72)  (  1,  7, 75)
  0 -0.7322E-06  1  0.1245E-04  0  0.9866E-05  0  0.1057E-04  0  0.1049E-04
   (  1,  5, 77)  (  1,  4, 50)  (  1,  1, 51)  (  1,  1, 53)  (  1,  1, 48)
  0  0.8403E-05  0  0.9698E-05  0  0.8545E-05  0  0.8019E-05  0  0.6986E-05
   (  1,  1, 46)  (  1,  1, 44)  (  1,  2, 42)  (  1,  2, 39)  (  1,  2, 36)
  0  0.6071E-05  0  0.4036E-05  0  0.2344E-05  0  0.1428E-05  0  0.1461E-05
   (  1,  3, 34)  (  1,  3, 31)  (  1,  3, 28)  (  1,  7, 77)  (  1,  6, 79)
  0  0.1831E-05  0  0.1391E-05  0  0.1318E-05  0  0.1395E-05  0  0.2169E-05
   (  1,  3, 81)  (  1,  3, 84)  (  1,  3, 87)  (  1,  2, 91)  (  1,  7, 98)
  0  0.1798E-05  1 -0.1124E-04  0 -0.7477E-05  0 -0.6783E-05  0 -0.6889E-05
   (  1,  6,100)  (  1,  4, 50)  (  1,  1, 51)  (  1,  1, 53)  (  1,  7, 52)
  0 -0.5307E-05  0 -0.5654E-05  0 -0.5120E-05  0 -0.4935E-05  0 -0.4589E-05
   (  1,  7, 54)  (  1,  7, 56)  (  1,  2, 42)  (  1,  3, 40)  (  1,  3, 37)
  0 -0.4628E-05  0 -0.3413E-05  0 -0.2422E-05  0 -0.1289E-05  0 -0.8699E-06
   (  1,  3, 34)  (  1,  3, 31)  (  1,  4, 29)  (  1,  7, 27)  (  1,  7, 80)
  1 -0.3087E-05  0 -0.3603E-05  0 -0.4059E-05  0 -0.3126E-05  0 -0.2741E-05
   (  1,  4, 48)  (  1,  4, 46)  (  1,  7, 45)  (  1,  7, 40)  (  1,  1, 43)
  0 -0.3191E-05  0 -0.3455E-05  0 -0.3024E-05  0 -0.1420E-05  0 -0.9527E-06
   (  1,  1, 42)  (  1,  1, 36)  (  1,  2, 37)  (  1,  2, 32)  (  1,  7, 66)
  1  0.1257E-04  0  0.1000E-04  0  0.1067E-04  0  0.1043E-04  0  0.8029E-05
   (  1,  4, 50)  (  1,  1, 51)  (  1,  1, 53)  (  1,  1, 48)  (  1,  1, 46)
  0  0.8947E-05  0  0.8141E-05  0  0.8192E-05  0  0.7244E-05  0  0.6119E-05
   (  1,  1, 44)  (  1,  2, 42)  (  1,  2, 39)  (  1,  4, 37)  (  1,  3, 34)
  0  0.4167E-05  0  0.2421E-05  0  0.1342E-05  0  0.1245E-05  0  0.1616E-05
   (  1,  3, 31)  (  1,  3, 28)  (  1,  7, 76)  (  1,  7, 79)  (  1,  5, 81)
  0  0.1429E-05  0  0.1286E-05  0  0.1388E-05  0  0.1983E-05  0  0.1811E-05
   (  1,  2, 83)  (  1,  2, 86)  (  1,  2, 90)  (  1,  2, 98)  (  1,  1,100)
  1 -0.1130E-04  0 -0.7572E-05  0 -0.6942E-05  0 -0.7000E-05  0 -0.5358E-05
   (  1,  4, 50)  (  1,  1, 51)  (  1,  1, 53)  (  1,  7, 52)  (  1,  7, 54)
  0 -0.5690E-05  0 -0.5197E-05  0 -0.5036E-05  0 -0.4654E-05  0 -0.4589E-05
   (  1,  7, 56)  (  1,  2, 42)  (  1,  3, 40)  (  1,  3, 37)  (  1,  3, 34)
  0 -0.3381E-05  0 -0.2432E-05  0 -0.1343E-05  0 -0.8695E-06  1 -0.2916E-05
   (  1,  3, 31)  (  1,  4, 29)  (  1,  7, 27)  (  1,  7, 80)  (  1,  4, 48)
  0 -0.3688E-05  0 -0.4297E-05  0 -0.3158E-05  0 -0.2771E-05  0 -0.3156E-05
   (  1,  4, 46)  (  1,  7, 44)  (  1,  7, 40)  (  1,  1, 45)  (  1,  1, 41)
  0 -0.3389E-05  0 -0.2907E-05  0 -0.1390E-05  0 -0.1070E-05  0 -0.1104E-05
   (  1,  1, 36)  (  1,  1, 34)  (  1,  1, 32)  (  1,  7, 66)  (  1,  7, 69)
  0 -0.1052E-05  0 -0.1201E-05  0 -0.7364E-06  1  0.1247E-04  0  0.9945E-05
   (  1,  7, 72)  (  1,  7, 75)  (  1,  4, 77)  (  1,  4, 50)  (  1,  1, 51)
  0  0.1081E-04  0  0.1070E-04  0  0.8516E-05  0  0.9757E-05  0  0.8648E-05
   (  1,  1, 53)  (  1,  1, 48)  (  1,  1, 46)  (  1,  1, 44)  (  1,  2, 42)
  0  0.8181E-05  0  0.7161E-05  0  0.6238E-05  0  0.4126E-05  0  0.2373E-05
   (  1,  2, 39)  (  1,  2, 36)  (  1,  3, 34)  (  1,  3, 31)  (  1,  3, 28)
  0  0.1448E-05  0  0.1456E-05  0  0.1822E-05  0  0.1413E-05  0  0.1340E-05
   (  1,  7, 77)  (  1,  6, 79)  (  1,  3, 81)  (  1,  2, 84)  (  1,  3, 87)
  0  0.1389E-05  0  0.2409E-05  0  0.1854E-05  1 -0.1123E-04  0 -0.7497E-05
   (  1,  2, 91)  (  1,  1,100)  (  1,  6, 99)  (  1,  4, 50)  (  1,  1, 51)
  0 -0.6832E-05  0 -0.6894E-05  0 -0.5257E-05  0 -0.5596E-05  0 -0.5078E-05
   (  1,  1, 53)  (  1,  7, 52)  (  1,  7, 54)  (  1,  7, 56)  (  1,  2, 42)
  0 -0.4789E-05  0 -0.4322E-05  0 -0.4308E-05  0 -0.3430E-05  0 -0.2489E-05
   (  1,  3, 40)  (  1,  3, 37)  (  1,  4, 35)  (  1,  4, 32)  (  1,  3, 29)
  0 -0.1449E-05  0 -0.8547E-06  1 -0.2950E-05  0 -0.3886E-05  0 -0.4397E-05
   (  1,  6, 27)  (  1,  7, 79)  (  1,  4, 49)  (  1,  4, 46)  (  1,  7, 44)
  0 -0.3076E-05  0 -0.2973E-05  0 -0.3000E-05  0 -0.3293E-05  0 -0.2936E-05
   (  1,  7, 39)  (  1,  1, 45)  (  1,  1, 41)  (  1,  1, 37)  (  1,  1, 36)
  0 -0.1488E-05  0 -0.1109E-05  0 -0.1008E-05  0 -0.1074E-05  0 -0.1287E-05
   (  1,  2, 33)  (  1,  7, 67)  (  1,  7, 69)  (  1,  7, 72)  (  1,  7, 75)
  0 -0.7165E-06  1  0.1249E-04  0  0.9884E-05  0  0.1058E-04  0  0.1048E-04
   (  1,  3, 76)  (  1,  4, 50)  (  1,  1, 51)  (  1,  1, 53)  (  1,  1, 48)
  0  0.8424E-05  0  0.9738E-05  0  0.8613E-05  0  0.8072E-05  0  0.7029E-05
   (  1,  1, 46)  (  1,  1, 44)  (  1,  2, 42)  (  1,  2, 39)  (  1,  2, 36)
  0  0.6126E-05  0  0.4100E-05  0  0.2351E-05  0  0.1432E-05  0  0.1450E-05
   (  1,  3, 34)  (  1,  3, 31)  (  1,  3, 28)  (  1,  7, 77)  (  1,  6, 79)
  0  0.1807E-05  0  0.1378E-05  0  0.1256E-05  0  0.1302E-05  0  0.2400E-05
   (  1,  3, 81)  (  1,  3, 84)  (  1,  3, 87)  (  1,  2, 90)  (  1,  1,100)
  0  0.1903E-05  1 -0.1124E-04  0 -0.7453E-05  0 -0.6738E-05  0 -0.6799E-05
   (  1,  6, 99)  (  1,  4, 50)  (  1,  1, 51)  (  1,  1, 53)  (  1,  7, 52)
  0 -0.5237E-05  0 -0.5681E-05  0 -0.5223E-05  0 -0.4943E-05  0 -0.4502E-05
   (  1,  7, 54)  (  1,  7, 56)  (  1,  2, 42)  (  1,  3, 40)  (  1,  3, 37)
  0 -0.4429E-05  0 -0.3341E-05  0 -0.2437E-05  0 -0.1420E-05  0 -0.8817E-06
   (  1,  3, 34)  (  1,  4, 32)  (  1,  4, 29)  (  1,  6, 27)  (  1,  7, 79)
  1 -0.2837E-05  0 -0.3876E-05  0 -0.4472E-05  0 -0.3155E-05  0 -0.2937E-05
   (  1,  4, 49)  (  1,  4, 46)  (  1,  7, 44)  (  1,  7, 40)  (  1,  1, 45)
  0 -0.3057E-05  0 -0.3412E-05  0 -0.3022E-05  0 -0.1443E-05  0 -0.1072E-05
   (  1,  1, 41)  (  1,  1, 37)  (  1,  1, 36)  (  1,  2, 33)  (  1,  7, 66)
  0 -0.1046E-05  0 -0.1013E-05  0 -0.1204E-05  0 -0.7414E-06  1  0.1243E-04
   (  1,  7, 69)  (  1,  6, 71)  (  1,  6, 74)  (  1,  6, 77)  (  1,  4, 50)
  0  0.9842E-05  0  0.1056E-04  0  0.1048E-04  0  0.8446E-05  0  0.9835E-05
   (  1,  1, 51)  (  1,  1, 53)  (  1,  1, 48)  (  1,  1, 46)  (  1,  1, 44)
  0  0.8716E-05  0  0.8094E-05  0  0.7014E-05  0  0.6169E-05  0  0.4134E-05
   (  1,  2, 42)  (  1,  2, 39)  (  1,  2, 36)  (  1,  3, 34)  (  1,  3, 31)
  0  0.2363E-05  0  0.1436E-05  0  0.1459E-05  0  0.1837E-05  0  0.1377E-05
   (  1,  3, 28)  (  1,  7, 77)  (  1,  6, 79)  (  1,  6, 82)  (  1,  3, 84)
  0  0.1263E-05  0  0.1466E-05  0  0.2198E-05  0  0.2104E-05  1 -0.1126E-04
   (  1,  3, 87)  (  1,  1,100)  (  1,  6, 99)  (  1,  1,100)  (  1,  4, 50)
  0 -0.7563E-05  0 -0.6894E-05  0 -0.6913E-05  0 -0.5297E-05  0 -0.5676E-05
   (  1,  1, 51)  (  1,  1, 53)  (  1,  7, 52)  (  1,  7, 54)  (  1,  7, 56)
  0 -0.5180E-05  0 -0.4874E-05  0 -0.4388E-05  0 -0.4378E-05  0 -0.3472E-05
   (  1,  2, 42)  (  1,  3, 40)  (  1,  3, 37)  (  1,  4, 35)  (  1,  4, 32)
  0 -0.2523E-05  0 -0.1459E-05  0 -0.8714E-06  1 -0.2866E-05  0 -0.3807E-05
   (  1,  3, 29)  (  1,  6, 27)  (  1,  7, 79)  (  1,  4, 49)  (  1,  4, 46)
  0 -0.4368E-05  0 -0.3187E-05  0 -0.2968E-05  0 -0.3161E-05  0 -0.3299E-05
   (  1,  7, 44)  (  1,  7, 39)  (  1,  1, 44)  (  1,  1, 42)  (  1,  1, 36)
  0 -0.2857E-05  0 -0.1417E-05  0 -0.1099E-05  0 -0.1026E-05  0 -0.1023E-05
   (  1,  1, 34)  (  1,  2, 33)  (  1,  7, 66)  (  1,  7, 68)  (  1,  6, 71)
  0 -0.1245E-05  0 -0.7536E-06  1  0.1244E-04  0  0.9832E-05  0  0.1053E-04
   (  1,  6, 74)  (  1,  4, 76)  (  1,  4, 50)  (  1,  1, 51)  (  1,  1, 53)
  0  0.1050E-04  0  0.8382E-05  0  0.9663E-05  0  0.8572E-05  0  0.8110E-05
   (  1,  1, 48)  (  1,  1, 46)  (  1,  1, 44)  (  1,  2, 42)  (  1,  2, 39)
  0  0.7058E-05  0  0.6149E-05  0  0.4092E-05  0  0.2352E-05  0  0.1425E-05
   (  1,  2, 36)  (  1,  3, 34)  (  1,  3, 31)  (  1,  3, 28)  (  1,  7, 77)
  0  0.1426E-05  0  0.1775E-05  0  0.1365E-05  0  0.1239E-05  0  0.1437E-05
   (  1,  6, 79)  (  1,  3, 81)  (  1,  3, 84)  (  1,  3, 87)  (  1,  1,100)
  0  0.2120E-05  0  0.2032E-05  1 -0.1126E-04  0 -0.7503E-05  0 -0.6802E-05
   (  1,  6, 99)  (  1,  1,100)  (  1,  4, 50)  (  1,  1, 51)  (  1,  1, 53)
  0 -0.6791E-05  0 -0.5151E-05  0 -0.5474E-05  0 -0.5117E-05  0 -0.4939E-05
   (  1,  7, 52)  (  1,  7, 54)  (  1,  7, 56)  (  1,  2, 42)  (  1,  3, 40)
  0 -0.4517E-05  0 -0.4465E-05  0 -0.3346E-05  0 -0.2423E-05  0 -0.1375E-05
   (  1,  3, 37)  (  1,  3, 34)  (  1,  4, 32)  (  1,  4, 29)  (  1,  6, 27)
  0 -0.8541E-06  1 -0.2884E-05  0 -0.3754E-05  0 -0.4202E-05  0 -0.2969E-05
   (  1,  7, 79)  (  1,  4, 49)  (  1,  4, 46)  (  1,  7, 44)  (  1,  7, 40)
  0 -0.2979E-05  0 -0.3265E-05  0 -0.3499E-05  0 -0.2934E-05  0 -0.1365E-05
   (  1,  1, 45)  (  1,  1, 41)  (  1,  1, 37)  (  1,  1, 36)  (  1,  2, 33)
  0 -0.9787E-06  1  0.1267E-04  0  0.1011E-04  0  0.1069E-04  0  0.1032E-04
   (  1,  7, 65)  (  1,  4, 50)  (  1,  1, 51)  (  1,  1, 53)  (  1,  1, 48)
  0  0.8081E-05  0  0.9094E-05  0  0.8274E-05  0  0.8254E-05  0  0.7241E-05
   (  1,  1, 46)  (  1,  1, 44)  (  1,  2, 42)  (  1,  2, 39)  (  1,  2, 36)
  0  0.6168E-05  0  0.4173E-05  0  0.2428E-05  0  0.1371E-05  0  0.1278E-05
   (  1,  3, 34)  (  1,  3, 31)  (  1,  3, 28)  (  1,  7, 76)  (  1,  7, 79)
  0  0.1658E-05  0  0.1440E-05  0  0.1252E-05  0  0.1346E-05  0  0.1994E-05
   (  1,  5, 81)  (  1,  2, 83)  (  1,  2, 86)  (  1,  2, 90)  (  1,  3, 95)
  0  0.1841E-05  1 -0.1124E-04  0 -0.7414E-05  0 -0.6681E-05  0 -0.6737E-05
   (  1,  1,100)  (  1,  4, 50)  (  1,  1, 51)  (  1,  1, 53)  (  1,  7, 52)
  0 -0.5218E-05  0 -0.5558E-05  0 -0.5067E-05  0 -0.4887E-05  0 -0.4530E-05
   (  1,  7, 54)  (  1,  7, 56)  (  1,  2, 42)  (  1,  3, 40)  (  1,  3, 37)
  0 -0.4570E-05  0 -0.3380E-05  0 -0.2401E-05  0 -0.1306E-05  0 -0.8733E-06
   (  1,  3, 34)  (  1,  3, 31)  (  1,  4, 29)  (  1,  7, 27)  (  1,  7, 80)
  1 -0.3081E-05  0 -0.3808E-05  0 -0.4260E-05  0 -0.3176E-05  0 -0.2881E-05
   (  1,  4, 48)  (  1,  4, 46)  (  1,  7, 44)  (  1,  7, 40)  (  1,  1, 43)
  0 -0.3582E-05  0 -0.3714E-05  0 -0.2926E-05  0 -0.1362E-05  0 -0.9338E-06
   (  1,  1, 41)  (  1,  1, 36)  (  1,  1, 34)  (  1,  2, 32)  (  1,  7, 67)
  1  0.1258E-04  0  0.1005E-04  0  0.1070E-04  0  0.1041E-04  0  0.8069E-05
   (  1,  4, 50)  (  1,  1, 51)  (  1,  1, 53)  (  1,  1, 48)  (  1,  1, 46)
  0  0.9071E-05  0  0.8248E-05  0  0.8267E-05  0  0.7324E-05  0  0.6258E-05
   (  1,  1, 44)  (  1,  2, 42)  (  1,  2, 39)  (  1,  4, 37)  (  1,  3, 34)
  0  0.4259E-05  0  0.2434E-05  0  0.1357E-05  0  0.1245E-05  0  0.1633E-05
   (  1,  3, 31)  (  1,  3, 28)  (  1,  7, 76)  (  1,  7, 79)  (  1,  5, 81)
  0  0.1446E-05  0  0.1270E-05  0  0.1363E-05  0  0.1975E-05  0  0.1815E-05
   (  1,  2, 83)  (  1,  2, 86)  (  1,  2, 90)  (  1,  2, 98)  (  1,  1,100)
  1 -0.1128E-04  0 -0.7510E-05  0 -0.6815E-05  0 -0.6854E-05  0 -0.5271E-05
   (  1,  4, 50)  (  1,  1, 51)  (  1,  1, 53)  (  1,  7, 52)  (  1,  7, 54)
  0 -0.5638E-05  0 -0.5152E-05  0 -0.4959E-05  0 -0.4611E-05  0 -0.4611E-05
   (  1,  7, 56)  (  1,  2, 42)  (  1,  3, 40)  (  1,  3, 37)  (  1,  3, 34)
  0 -0.3418E-05  0 -0.2423E-05  0 -0.1314E-05  0 -0.8674E-06  1 -0.2936E-05
   (  1,  3, 31)  (  1,  4, 29)  (  1,  7, 27)  (  1,  7, 80)  (  1,  4, 48)
  0 -0.3712E-05  0 -0.4285E-05  0 -0.3147E-05  0 -0.2828E-05  0 -0.3336E-05
   (  1,  4, 46)  (  1,  7, 44)  (  1,  7, 40)  (  1,  1, 43)  (  1,  1, 41)
  0 -0.3605E-05  0 -0.2946E-05  0 -0.1382E-05  0 -0.1005E-05  0 -0.1026E-05
   (  1,  1, 36)  (  1,  1, 34)  (  1,  2, 32)  (  1,  7, 66)  (  1,  7, 69)
  0 -0.1005E-05  0 -0.1219E-05  0 -0.7022E-06  1  0.1243E-04  0  0.9859E-05
   (  1,  7, 72)  (  1,  6, 74)  (  1,  6, 77)  (  1,  4, 50)  (  1,  1, 51)
  0  0.1053E-04  0  0.1039E-04  0  0.8340E-05  0  0.9733E-05  0  0.8682E-05
   (  1,  1, 53)  (  1,  1, 48)  (  1,  1, 46)  (  1,  1, 44)  (  1,  2, 42)
  0  0.8070E-05  0  0.6970E-05  0  0.6080E-05  0  0.4052E-05  0  0.2368E-05
   (  1,  2, 39)  (  1,  2, 36)  (  1,  3, 34)  (  1,  3, 31)  (  1,  3, 28)
  0  0.1449E-05  0  0.1466E-05  0  0.1817E-05  0  0.1369E-05  0  0.1285E-05
   (  1,  7, 77)  (  1,  6, 79)  (  1,  6, 82)  (  1,  3, 84)  (  1,  3, 87)
  0  0.1372E-05  0  0.2212E-05  0  0.2074E-05  1 -0.1125E-04  0 -0.7480E-05
   (  1,  1,100)  (  1,  6, 99)  (  1,  1,100)  (  1,  4, 50)  (  1,  1, 51)
  0 -0.6774E-05  0 -0.6827E-05  0 -0.5260E-05  0 -0.5611E-05  0 -0.5116E-05
   (  1,  1, 53)  (  1,  7, 52)  (  1,  7, 54)  (  1,  7, 56)  (  1,  2, 42)
  0 -0.4837E-05  0 -0.4363E-05  0 -0.4358E-05  0 -0.3483E-05  0 -0.2503E-05
   (  1,  3, 40)  (  1,  3, 37)  (  1,  4, 35)  (  1,  4, 32)  (  1,  3, 29)
  0 -0.1448E-05  0 -0.8734E-06  1 -0.2863E-05  0 -0.3901E-05  0 -0.4359E-05
   (  1,  6, 27)  (  1,  7, 79)  (  1,  4, 49)  (  1,  4, 46)  (  1,  7, 44)
  0 -0.3058E-05  0 -0.2843E-05  0 -0.3225E-05  0 -0.3412E-05  0 -0.2828E-05
   (  1,  7, 39)  (  1,  1, 44)  (  1,  1, 42)  (  1,  1, 37)  (  1,  1, 34)
  0 -0.1369E-05  0 -0.9974E-06  1  0.1262E-04  0  0.1010E-04  0  0.1078E-04
   (  1,  2, 33)  (  1,  7, 65)  (  1,  4, 50)  (  1,  1, 51)  (  1,  1, 53)
  0  0.1042E-04  0  0.8068E-05  0  0.8993E-05  0  0.8111E-05  0  0.8124E-05
   (  1,  1, 48)  (  1,  1, 46)  (  1,  1, 44)  (  1,  2, 42)  (  1,  2, 39)
  0  0.7210E-05  0  0.6152E-05  0  0.4177E-05  0  0.2408E-05  0  0.1344E-05
   (  1,  2, 36)  (  1,  3, 34)  (  1,  3, 31)  (  1,  3, 28)  (  1,  7, 76)
  0  0.1236E-05  0  0.1648E-05  0  0.1495E-05  0  0.1311E-05  0  0.1397E-05
   (  1,  7, 79)  (  1,  5, 81)  (  1,  2, 83)  (  1,  2, 86)  (  1,  2, 90)
  0  0.1988E-05  0  0.1782E-05  1 -0.1128E-04  0 -0.7573E-05  0 -0.6978E-05
   (  1,  3, 95)  (  1,  1,100)  (  1,  4, 50)  (  1,  1, 51)  (  1,  1, 53)
  0 -0.7053E-05  0 -0.5380E-05  0 -0.5703E-05  0 -0.5147E-05  0 -0.4930E-05
   (  1,  7, 52)  (  1,  7, 54)  (  1,  7, 56)  (  1,  2, 42)  (  1,  3, 40)
  0 -0.4571E-05  0 -0.4589E-05  0 -0.3387E-05  0 -0.2418E-05  0 -0.1318E-05
   (  1,  3, 37)  (  1,  3, 34)  (  1,  3, 31)  (  1,  4, 29)  (  1,  7, 27)
  0 -0.8524E-06  1 -0.3015E-05  0 -0.3763E-05  0 -0.4280E-05  0 -0.3234E-05
   (  1,  7, 80)  (  1,  4, 48)  (  1,  4, 46)  (  1,  7, 44)  (  1,  7, 40)
  0 -0.2870E-05  0 -0.3132E-05  0 -0.3450E-05  0 -0.3059E-05  0 -0.1450E-05
   (  1,  1, 43)  (  1,  1, 41)  (  1,  1, 36)  (  1,  1, 34)  (  1,  2, 32)
  0 -0.1108E-05  0 -0.1125E-05  0 -0.1105E-05  0 -0.1274E-05  0 -0.7333E-06
   (  1,  7, 67)  (  1,  7, 69)  (  1,  7, 72)  (  1,  7, 75)  (  1,  4, 77)
  1  0.1242E-04  0  0.9888E-05  0  0.1073E-04  0  0.1060E-04  0  0.8370E-05
   (  1,  4, 50)  (  1,  1, 51)  (  1,  1, 53)  (  1,  1, 48)  (  1,  1, 46)
  0  0.9690E-05  0  0.8647E-05  0  0.8167E-05  0  0.7148E-05  0  0.6268E-05
   (  1,  1, 44)  (  1,  2, 42)  (  1,  2, 39)  (  1,  2, 36)  (  1,  3, 34)
  0  0.4145E-05  0  0.2358E-05  0  0.1424E-05  0  0.1377E-05  0  0.1716E-05
   (  1,  3, 31)  (  1,  3, 28)  (  1,  7, 77)  (  1,  6, 79)  (  1,  4, 81)
  0  0.1400E-05  0  0.1250E-05  0  0.1374E-05  0  0.2105E-05  0  0.1952E-05
   (  1,  3, 84)  (  1,  3, 87)  (  1,  1,100)  (  1,  6, 99)  (  1,  1,100)
  1 -0.1123E-04  0 -0.7484E-05  0 -0.6828E-05  0 -0.6853E-05  0 -0.5177E-05
   (  1,  4, 50)  (  1,  1, 51)  (  1,  1, 53)  (  1,  7, 52)  (  1,  7, 54)
  0 -0.5490E-05  0 -0.5131E-05  0 -0.4933E-05  0 -0.4565E-05  0 -0.4556E-05
   (  1,  7, 56)  (  1,  2, 42)  (  1,  3, 40)  (  1,  3, 37)  (  1,  3, 34)
  0 -0.3384E-05  0 -0.2414E-05  0 -0.1325E-05  0 -0.8347E-06  1 -0.2807E-05
   (  1,  3, 31)  (  1,  4, 29)  (  1,  6, 27)  (  1,  6, 79)  (  1,  4, 48)
  0 -0.3658E-05  0 -0.4288E-05  0 -0.3165E-05  0 -0.2881E-05  0 -0.3154E-05
   (  1,  4, 46)  (  1,  7, 44)  (  1,  7, 40)  (  1,  1, 45)  (  1,  1, 41)
  0 -0.3320E-05  0 -0.2915E-05  0 -0.1385E-05  0 -0.1045E-05  0 -0.9579E-06
   (  1,  1, 36)  (  1,  1, 36)  (  1,  1, 32)  (  1,  7, 67)  (  1,  7, 69)
  1  0.1256E-04  0  0.9794E-05  0  0.1072E-04  0  0.1054E-04  0  0.8255E-05
   (  1,  4, 50)  (  1,  1, 51)  (  1,  1, 53)  (  1,  1, 48)  (  1,  1, 46)
  0  0.9370E-05  0  0.8326E-05  0  0.8025E-05  0  0.7105E-05  0  0.6311E-05
   (  1,  1, 44)  (  1,  2, 42)  (  1,  2, 39)  (  1,  2, 36)  (  1,  3, 34)
  0  0.4152E-05  0  0.2384E-05  0  0.1403E-05  0  0.1334E-05  0  0.1711E-05
   (  1,  3, 31)  (  1,  3, 28)  (  1,  7, 77)  (  1,  6, 79)  (  1,  3, 81)
  0  0.1387E-05  0  0.1328E-05  0  0.1367E-05  0  0.2233E-05  0  0.1804E-05
   (  1,  2, 84)  (  1,  3, 87)  (  1,  2, 90)  (  1,  1,100)  (  1,  6, 99)
  1 -0.1119E-04  0 -0.7376E-05  0 -0.6678E-05  0 -0.6806E-05  0 -0.5177E-05
   (  1,  4, 50)  (  1,  1, 51)  (  1,  1, 53)  (  1,  7, 52)  (  1,  7, 54)
  0 -0.5500E-05  0 -0.5027E-05  0 -0.4800E-05  0 -0.4411E-05  0 -0.4378E-05
   (  1,  7, 56)  (  1,  2, 42)  (  1,  3, 40)  (  1,  3, 37)  (  1,  3, 34)
  0 -0.3263E-05  0 -0.2364E-05  0 -0.1355E-05  0 -0.8458E-06  1 -0.2789E-05
   (  1,  4, 32)  (  1,  4, 29)  (  1,  6, 27)  (  1,  7, 79)  (  1,  4, 49)
  0 -0.3885E-05  0 -0.4363E-05  0 -0.3094E-05  0 -0.2986E-05  0 -0.3325E-05
   (  1,  4, 46)  (  1,  7, 44)  (  1,  7, 40)  (  1,  1, 45)  (  1,  1, 41)
  0 -0.3573E-05  0 -0.2961E-05  0 -0.1366E-05  0 -0.1036E-05  0 -0.9817E-06
   (  1,  1, 37)  (  1,  1, 36)  (  1,  2, 33)  (  1,  7, 65)  (  1,  7, 69)
  1  0.1261E-04  0  0.9861E-05  0  0.1066E-04  0  0.1038E-04  0  0.8195E-05
   (  1,  4, 50)  (  1,  1, 51)  (  1,  1, 53)  (  1,  1, 48)  (  1,  1, 46)
  0  0.9398E-05  0  0.8396E-05  0  0.8071E-05  0  0.7133E-05  0  0.6335E-05
   (  1,  1, 44)  (  1,  2, 42)  (  1,  2, 39)  (  1,  3, 37)  (  1,  3, 34)
  0  0.4219E-05  0  0.2384E-05  0  0.1386E-05  0  0.1274E-05  0  0.1670E-05
   (  1,  3, 31)  (  1,  3, 28)  (  1,  7, 77)  (  1,  6, 79)  (  1,  4, 81)
  0  0.1431E-05  0  0.1276E-05  0  0.1352E-05  0  0.1953E-05  0  0.1844E-05
   (  1,  2, 83)  (  1,  2, 86)  (  1,  2, 90)  (  1,  2, 98)  (  1,  1,100)
  1 -0.1128E-04  0 -0.7602E-05  0 -0.6964E-05  0 -0.6992E-05  0 -0.5364E-05
   (  1,  4, 50)  (  1,  1, 51)  (  1,  1, 53)  (  1,  7, 52)  (  1,  7, 54)
  0 -0.5780E-05  0 -0.5287E-05  0 -0.5067E-05  0 -0.4695E-05  0 -0.4706E-05
   (  1,  7, 56)  (  1,  2, 42)  (  1,  3, 40)  (  1,  3, 37)  (  1,  3, 34)
  0 -0.3477E-05  0 -0.2468E-05  0 -0.1331E-05  0 -0.8863E-06  1 -0.3078E-05
   (  1,  3, 31)  (  1,  4, 29)  (  1,  7, 27)  (  1,  7, 80)  (  1,  4, 48)
  0 -0.3569E-05  0 -0.4283E-05  0 -0.3227E-05  0 -0.2894E-05  0 -0.3231E-05
   (  1,  4, 46)  (  1,  7, 44)  (  1,  7, 40)  (  1,  1, 43)  (  1,  1, 41)
  0 -0.3572E-05  0 -0.3110E-05  0 -0.1393E-05  0 -0.9840E-06  1  0.1262E-04
   (  1,  1, 36)  (  1,  1, 34)  (  1,  2, 32)  (  1,  7, 66)  (  1,  4, 50)
  0  0.1011E-04  0  0.1085E-04  0  0.1043E-04  0  0.8063E-05  0  0.8989E-05
   (  1,  1, 51)  (  1,  1, 53)  (  1,  1, 48)  (  1,  1, 46)  (  1,  1, 44)
  0  0.8220E-05  0  0.8242E-05  0  0.7315E-05  0  0.6228E-05  0  0.4242E-05
   (  1,  2, 42)  (  1,  2, 39)  (  1,  4, 37)  (  1,  3, 34)  (  1,  3, 31)
  0  0.2451E-05  0  0.1337E-05  0  0.1273E-05  0  0.1629E-05  0  0.1398E-05
   (  1,  3, 28)  (  1,  6, 76)  (  1,  6, 79)  (  1,  3, 81)  (  1,  2, 83)
  0  0.1290E-05  0  0.1396E-05  0  0.2021E-05  0  0.1847E-05  1 -0.1125E-04
   (  1,  2, 86)  (  1,  2, 90)  (  1,  2, 98)  (  1,  1,100)  (  1,  4, 50)
  0 -0.7498E-05  0 -0.6814E-05  0 -0.6872E-05  0 -0.5267E-05  0 -0.5634E-05
   (  1,  1, 51)  (  1,  1, 53)  (  1,  7, 52)  (  1,  7, 54)  (  1,  7, 56)
  0 -0.5108E-05  0 -0.4894E-05  0 -0.4552E-05  0 -0.4609E-05  0 -0.3399E-05
   (  1,  2, 42)  (  1,  3, 40)  (  1,  3, 37)  (  1,  3, 34)  (  1,  3, 31)
  0 -0.2397E-05  0 -0.1300E-05  0 -0.8426E-06  1 -0.2951E-05  0 -0.3750E-05
   (  1,  4, 29)  (  1,  7, 27)  (  1,  6, 79)  (  1,  4, 48)  (  1,  4, 46)
  0 -0.4347E-05  0 -0.3213E-05  0 -0.2912E-05  0 -0.3273E-05  0 -0.3526E-05
   (  1,  7, 44)  (  1,  7, 40)  (  1,  1, 45)  (  1,  1, 41)  (  1,  1, 36)
  0 -0.3050E-05  0 -0.1383E-05  0 -0.1012E-05  0 -0.1022E-05  0 -0.9870E-06
   (  1,  1, 36)  (  1,  2, 32)  (  1,  7, 66)  (  1,  7, 69)  (  1,  7, 72)
  1  0.1261E-04  0  0.9832E-05  0  0.1058E-04  0  0.1057E-04  0  0.8364E-05
   (  1,  4, 50)  (  1,  1, 51)  (  1,  1, 53)  (  1,  1, 48)  (  1,  1, 46)
  0  0.9656E-05  0  0.8582E-05  0  0.8075E-05  0  0.7245E-05  0  0.6336E-05
   (  1,  1, 44)  (  1,  2, 42)  (  1,  2, 39)  (  1,  3, 37)  (  1,  3, 34)
  0  0.4167E-05  0  0.2402E-05  0  0.1461E-05  0  0.1358E-05  0  0.1718E-05
   (  1,  3, 31)  (  1,  3, 28)  (  1,  7, 77)  (  1,  6, 79)  (  1,  5, 81)
  0  0.1383E-05  0  0.1294E-05  0  0.1397E-05  0  0.2047E-05  0  0.1914E-05
   (  1,  3, 84)  (  1,  5, 87)  (  1,  1,100)  (  1,  2, 98)  (  1,  1,100)
  1 -0.1120E-04  0 -0.7436E-05  0 -0.6776E-05  0 -0.6898E-05  0 -0.5314E-05
   (  1,  4, 50)  (  1,  1, 51)  (  1,  1, 53)  (  1,  7, 52)  (  1,  7, 54)
  0 -0.5757E-05  0 -0.5263E-05  0 -0.4988E-05  0 -0.4521E-05  0 -0.4488E-05
   (  1,  7, 56)  (  1,  6, 58)  (  1,  3, 40)  (  1,  3, 37)  (  1,  3, 34)
  0 -0.3349E-05  0 -0.2439E-05  0 -0.1390E-05  0 -0.8737E-06  1 -0.2898E-05
   (  1,  4, 32)  (  1,  4, 29)  (  1,  6, 27)  (  1,  7, 79)  (  1,  4, 47)
  0 -0.3856E-05  0 -0.4261E-05  0 -0.3024E-05  0 -0.2815E-05  0 -0.3147E-05
   (  1,  4, 46)  (  1,  7, 44)  (  1,  7, 40)  (  1,  1, 45)  (  1,  1, 41)
  0 -0.3477E-05  0 -0.2976E-05  0 -0.1405E-05  0 -0.1040E-05  0 -0.9916E-06
   (  1,  1, 37)  (  1,  1, 36)  (  1,  2, 33)  (  1,  7, 66)  (  1,  7, 68)
  1  0.1257E-04  0  0.9801E-05  0  0.1066E-04  0  0.1040E-04  0  0.8183E-05
   (  1,  4, 50)  (  1,  1, 51)  (  1,  1, 53)  (  1,  1, 48)  (  1,  1, 46)
  0  0.9334E-05  0  0.8319E-05  0  0.7967E-05  0  0.6973E-05  0  0.6150E-05
   (  1,  1, 44)  (  1,  2, 42)  (  1,  2, 39)  (  1,  2, 36)  (  1,  3, 34)
  0  0.4104E-05  0  0.2374E-05  0  0.1399E-05  0  0.1323E-05  0  0.1681E-05
   (  1,  3, 31)  (  1,  3, 28)  (  1,  7, 77)  (  1,  6, 79)  (  1,  3, 81)
  0  0.1379E-05  0  0.1298E-05  0  0.1373E-05  0  0.2176E-05  0  0.1812E-05
   (  1,  2, 84)  (  1,  3, 87)  (  1,  2, 90)  (  1,  1,100)  (  1,  6, 99)
  1 -0.1125E-04  0 -0.7502E-05  0 -0.6763E-05  0 -0.6717E-05  0 -0.5141E-05
   (  1,  4, 50)  (  1,  1, 51)  (  1,  1, 53)  (  1,  7, 52)  (  1,  7, 54)
  0 -0.5504E-05  0 -0.5084E-05  0 -0.4879E-05  0 -0.4457E-05  0 -0.4383E-05
   (  1,  7, 56)  (  1,  2, 42)  (  1,  3, 40)  (  1,  3, 37)  (  1,  3, 34)
  0 -0.3237E-05  0 -0.2362E-05  0 -0.1343E-05  0 -0.8522E-06  1 -0.2750E-05
   (  1,  3, 31)  (  1,  4, 29)  (  1,  6, 27)  (  1,  7, 79)  (  1,  4, 49)
  0 -0.3738E-05  0 -0.4422E-05  0 -0.3243E-05  0 -0.2859E-05  0 -0.3156E-05
   (  1,  4, 46)  (  1,  7, 44)  (  1,  7, 40)  (  1,  1, 45)  (  1,  1, 41)
  0 -0.3337E-05  0 -0.2986E-05  0 -0.1402E-05  0 -0.1008E-05  0 -0.9609E-06
   (  1,  1, 37)  (  1,  1, 36)  (  1,  1, 32)  (  1,  7, 65)  (  1,  7, 69)
  1  0.1260E-04  0  0.9888E-05  0  0.1085E-04  0  0.1055E-04  0  0.8166E-05
   (  1,  4, 50)  (  1,  1, 51)  (  1,  1, 53)  (  1,  1, 48)  (  1,  1, 46)
  0  0.9236E-05  0  0.8296E-05  0  0.8065E-05  0  0.7130E-05  0  0.6229E-05
   (  1,  1, 44)  (  1,  2, 42)  (  1,  2, 39)  (  1,  2, 36)  (  1,  3, 34)
  0  0.4169E-05  0  0.2406E-05  0  0.1393E-05  0  0.1334E-05  0  0.1705E-05
   (  1,  3, 31)  (  1,  3, 28)  (  1,  7, 77)  (  1,  6, 79)  (  1,  3, 81)
  0  0.1369E-05  0  0.1327E-05  0  0.1489E-05  0  0.2044E-05  0  0.1952E-05
   (  1,  2, 84)  (  1,  3, 87)  (  1,  1,100)  (  1,  6, 99)  (  1,  1,100)
  1 -0.1126E-04  0 -0.7555E-05  0 -0.6896E-05  0 -0.6880E-05  0 -0.5227E-05
   (  1,  4, 50)  (  1,  1, 51)  (  1,  1, 53)  (  1,  7, 52)  (  1,  7, 54)
  0 -0.5572E-05  0 -0.5155E-05  0 -0.4927E-05  0 -0.4455E-05  0 -0.4358E-05
   (  1,  7, 56)  (  1,  2, 42)  (  1,  3, 40)  (  1,  3, 37)  (  1,  3, 34)
  0 -0.3294E-05  0 -0.2427E-05  0 -0.1417E-05  0 -0.8739E-06  1 -0.2922E-05
   (  1,  4, 32)  (  1,  4, 29)  (  1,  6, 27)  (  1,  7, 79)  (  1,  4, 49)
  0 -0.3870E-05  0 -0.4538E-05  0 -0.3284E-05  0 -0.2993E-05  0 -0.3110E-05
   (  1,  4, 46)  (  1,  7, 44)  (  1,  7, 40)  (  1,  1, 45)  (  1,  1, 41)
  0 -0.3412E-05  0 -0.2976E-05  0 -0.1446E-05  0 -0.1143E-05  0 -0.1057E-05
   (  1,  1, 37)  (  1,  1, 34)  (  1,  2, 33)  (  1,  7, 66)  (  1,  7, 69)
  0 -0.1022E-05  0 -0.1237E-05  0 -0.7267E-06  1  0.1243E-04  0  0.9821E-05
   (  1,  6, 71)  (  1,  6, 74)  (  1,  3, 76)  (  1,  4, 50)  (  1,  1, 51)
  0  0.1065E-04  0  0.1068E-04  0  0.8541E-05  0  0.9857E-05  0  0.8705E-05
   (  1,  1, 53)  (  1,  1, 48)  (  1,  1, 46)  (  1,  1, 44)  (  1,  2, 42)
  0  0.8118E-05  0  0.7080E-05  0  0.6252E-05  0  0.4156E-05  0  0.2365E-05
   (  1,  2, 39)  (  1,  2, 36)  (  1,  3, 34)  (  1,  3, 31)  (  1,  3, 28)
  0  0.1429E-05  0  0.1405E-05  0  0.1768E-05  0  0.1412E-05  0  0.1258E-05
   (  1,  7, 77)  (  1,  6, 79)  (  1,  6, 82)  (  1,  3, 84)  (  1,  3, 87)
  0  0.1418E-05  0  0.2114E-05  0  0.1985E-05  1 -0.1120E-04  0 -0.7392E-05
   (  1,  1,100)  (  1,  6, 99)  (  1,  1,100)  (  1,  4, 50)  (  1,  1, 51)
  0 -0.6735E-05  0 -0.6890E-05  0 -0.5322E-05  0 -0.5715E-05  0 -0.5207E-05
   (  1,  1, 53)  (  1,  7, 52)  (  1,  7, 54)  (  1,  7, 56)  (  1,  2, 42)
  0 -0.4929E-05  0 -0.4495E-05  0 -0.4478E-05  0 -0.3332E-05  0 -0.2415E-05
   (  1,  3, 40)  (  1,  3, 37)  (  1,  3, 34)  (  1,  4, 32)  (  1,  4, 29)
  0 -0.1375E-05  0 -0.8555E-06  1 -0.2910E-05  0 -0.3913E-05  0 -0.4396E-05
   (  1,  6, 27)  (  1,  7, 79)  (  1,  4, 49)  (  1,  4, 46)  (  1,  7, 44)
  0 -0.3084E-05  0 -0.2845E-05  0 -0.3134E-05  0 -0.3414E-05  0 -0.2971E-05
   (  1,  7, 40)  (  1,  1, 45)  (  1,  1, 41)  (  1,  1, 37)  (  1,  1, 36)
  0 -0.1404E-05  0 -0.1062E-05  0 -0.1060E-05  0 -0.1048E-05  0 -0.1176E-05
   (  1,  2, 33)  (  1,  7, 66)  (  1,  7, 69)  (  1,  7, 72)  (  1,  7, 75)
  0 -0.7070E-06  1  0.1245E-04  0  0.9890E-05  0  0.1070E-04  0  0.1060E-04
   (  1,  6, 77)  (  1,  4, 50)  (  1,  1, 51)  (  1,  1, 53)  (  1,  1, 48)
  0  0.8432E-05  0  0.9784E-05  0  0.8743E-05  0  0.8170E-05  0  0.7066E-05
   (  1,  1, 46)  (  1,  1, 44)  (  1,  2, 42)  (  1,  2, 39)  (  1,  2, 36)
  0  0.6200E-05  0  0.4143E-05  0  0.2373E-05  0  0.1428E-05  0  0.1421E-05
   (  1,  3, 34)  (  1,  3, 31)  (  1,  3, 28)  (  1,  7, 77)  (  1,  6, 79)
  0  0.1773E-05  0  0.1384E-05  0  0.1238E-05  0  0.1442E-05  0  0.2142E-05
   (  1,  6, 82)  (  1,  3, 84)  (  1,  3, 87)  (  1,  1,100)  (  1,  6, 99)
  0  0.1991E-05  1 -0.1128E-04  0 -0.7537E-05  0 -0.6919E-05  0 -0.7004E-05
   (  1,  1,100)  (  1,  4, 50)  (  1,  1, 51)  (  1,  1, 53)  (  1,  7, 52)
  0 -0.5330E-05  0 -0.5661E-05  0 -0.5221E-05  0 -0.4990E-05  0 -0.4568E-05
   (  1,  7, 54)  (  1,  7, 56)  (  1,  2, 42)  (  1,  3, 40)  (  1,  3, 37)
  0 -0.4530E-05  0 -0.3392E-05  0 -0.2453E-05  0 -0.1392E-05  0 -0.8577E-06
   (  1,  3, 34)  (  1,  4, 32)  (  1,  4, 29)  (  1,  6, 27)  (  1,  7, 79)
  1 -0.2893E-05  0 -0.3881E-05  0 -0.4417E-05  0 -0.3143E-05  0 -0.2924E-05
   (  1,  4, 49)  (  1,  4, 46)  (  1,  7, 44)  (  1,  7, 40)  (  1,  1, 45)
  0 -0.3142E-05  0 -0.3415E-05  0 -0.2980E-05  0 -0.1450E-05  0 -0.1097E-05
   (  1,  1, 41)  (  1,  1, 37)  (  1,  1, 36)  (  1,  2, 33)  (  1,  7, 65)
  0 -0.1054E-05  0 -0.1026E-05  0 -0.1262E-05  0 -0.7345E-06  1  0.1237E-04
   (  1,  7, 68)  (  1,  7, 71)  (  1,  7, 74)  (  1,  3, 76)  (  1,  4, 50)
  0  0.9744E-05  0  0.1046E-04  0  0.1051E-04  0  0.8431E-05  0  0.9798E-05
   (  1,  1, 51)  (  1,  1, 53)  (  1,  1, 48)  (  1,  1, 46)  (  1,  1, 44)
  0  0.8664E-05  0  0.8120E-05  0  0.7056E-05  0  0.6149E-05  0  0.4081E-05
   (  1,  2, 42)  (  1,  2, 39)  (  1,  2, 36)  (  1,  3, 34)  (  1,  3, 31)
  0  0.2373E-05  0  0.1446E-05  0  0.1433E-05  0  0.1778E-05  0  0.1361E-05
   (  1,  3, 28)  (  1,  7, 77)  (  1,  6, 79)  (  1,  3, 81)  (  1,  3, 84)
  0  0.1235E-05  0  0.1434E-05  0  0.2090E-05  0  0.2038E-05  1 -0.1119E-04
   (  1,  3, 87)  (  1,  1,100)  (  1,  6, 99)  (  1,  1,100)  (  1,  4, 50)
  0 -0.7414E-05  0 -0.6733E-05  0 -0.6821E-05  0 -0.5232E-05  0 -0.5644E-05
   (  1,  1, 51)  (  1,  1, 53)  (  1,  7, 52)  (  1,  7, 54)  (  1,  7, 56)
  0 -0.5182E-05  0 -0.4896E-05  0 -0.4397E-05  0 -0.4313E-05  0 -0.3283E-05
   (  1,  2, 42)  (  1,  3, 40)  (  1,  3, 37)  (  1,  4, 35)  (  1,  4, 32)
  0 -0.2426E-05  0 -0.1438E-05  0 -0.8720E-06  1 -0.2850E-05  0 -0.3856E-05
   (  1,  4, 29)  (  1,  6, 27)  (  1,  7, 79)  (  1,  4, 49)  (  1,  4, 46)
  0 -0.4488E-05  0 -0.3138E-05  0 -0.2950E-05  0 -0.3161E-05  0 -0.3409E-05
   (  1,  7, 44)  (  1,  7, 39)  (  1,  1, 45)  (  1,  1, 41)  (  1,  1, 37)
  0 -0.2904E-05  0 -0.1370E-05  0 -0.1037E-05  0 -0.1009E-05  0 -0.9938E-06
   (  1,  1, 36)  (  1,  2, 33)  (  1,  7, 65)  (  1,  7, 69)  (  1,  7, 72)
  1  0.1264E-04  0  0.9846E-05  0  0.1061E-04  0  0.1056E-04  0  0.8359E-05
   (  1,  4, 50)  (  1,  1, 51)  (  1,  1, 53)  (  1,  1, 48)  (  1,  1, 46)
  0  0.9662E-05  0  0.8540E-05  0  0.7964E-05  0  0.7116E-05  0  0.6281E-05
   (  1,  1, 44)  (  1,  2, 42)  (  1,  2, 39)  (  1,  2, 36)  (  1,  3, 34)
  0  0.4137E-05  0  0.2366E-05  0  0.1423E-05  0  0.1318E-05  0  0.1715E-05
   (  1,  3, 31)  (  1,  3, 28)  (  1,  7, 76)  (  1,  6, 79)  (  1,  5, 81)
  0  0.1436E-05  0  0.1318E-05  0  0.1385E-05  0  0.2064E-05  0  0.1874E-05
   (  1,  2, 83)  (  1,  5, 87)  (  1,  2, 90)  (  1,  2, 98)  (  1,  1,100)
  1 -0.1122E-04  0 -0.7426E-05  0 -0.6700E-05  0 -0.6743E-05  0 -0.5170E-05
   (  1,  4, 50)  (  1,  1, 51)  (  1,  1, 53)  (  1,  7, 52)  (  1,  7, 54)
  0 -0.5507E-05  0 -0.5086E-05  0 -0.4929E-05  0 -0.4548E-05  0 -0.4482E-05
   (  1,  7, 56)  (  1,  2, 42)  (  1,  3, 40)  (  1,  3, 37)  (  1,  3, 34)
  0 -0.3320E-05  0 -0.2408E-05  0 -0.1337E-05  0 -0.8499E-06  1 -0.2865E-05
   (  1,  3, 31)  (  1,  4, 29)  (  1,  7, 27)  (  1,  6, 79)  (  1,  4, 48)
  0 -0.3750E-05  0 -0.4412E-05  0 -0.3164E-05  0 -0.2930E-05  0 -0.3459E-05
   (  1,  4, 46)  (  1,  7, 44)  (  1,  7, 40)  (  1,  1, 45)  (  1,  1, 41)
  0 -0.3671E-05  0 -0.2930E-05  0 -0.1270E-05  0 -0.9651E-06  1  0.1262E-04
   (  1,  1, 36)  (  1,  1, 34)  (  1,  1, 32)  (  1,  7, 66)  (  1,  4, 50)
  0  0.1012E-04  0  0.1088E-04  0  0.1053E-04  0  0.8168E-05  0  0.9115E-05
   (  1,  1, 51)  (  1,  1, 53)  (  1,  1, 48)  (  1,  1, 46)  (  1,  1, 44)
  0  0.8279E-05  0  0.8292E-05  0  0.7320E-05  0  0.6195E-05  0  0.4201E-05
   (  1,  2, 42)  (  1,  2, 39)  (  1,  2, 36)  (  1,  3, 34)  (  1,  3, 31)
  0  0.2454E-05  0  0.1362E-05  0  0.1289E-05  0  0.1638E-05  0  0.1415E-05
   (  1,  3, 28)  (  1,  7, 77)  (  1,  6, 79)  (  1,  4, 81)  (  1,  2, 83)
  0  0.1305E-05  0  0.1407E-05  0  0.2046E-05  0  0.1868E-05  1 -0.1128E-04
   (  1,  2, 86)  (  1,  2, 90)  (  1,  7, 99)  (  1,  1,100)  (  1,  4, 50)
  0 -0.7543E-05  0 -0.6909E-05  0 -0.6946E-05  0 -0.5320E-05  0 -0.5638E-05
   (  1,  1, 51)  (  1,  1, 53)  (  1,  7, 52)  (  1,  7, 54)  (  1,  7, 56)
  0 -0.5181E-05  0 -0.4979E-05  0 -0.4545E-05  0 -0.4476E-05  0 -0.3332E-05
   (  1,  2, 42)  (  1,  3, 40)  (  1,  3, 37)  (  1,  3, 34)  (  1,  3, 31)
  0 -0.2415E-05  0 -0.1358E-05  0 -0.8619E-06  1 -0.2900E-05  0 -0.3753E-05
   (  1,  4, 29)  (  1,  6, 27)  (  1,  6, 79)  (  1,  4, 47)  (  1,  4, 46)
  0 -0.4271E-05  0 -0.3158E-05  0 -0.3001E-05  0 -0.3376E-05  0 -0.3447E-05
   (  1,  7, 44)  (  1,  7, 40)  (  1,  1, 45)  (  1,  1, 41)  (  1,  1, 36)
  0 -0.2968E-05  0 -0.1395E-05  0 -0.1063E-05  0 -0.1001E-05  0 -0.1003E-05
   (  1,  1, 36)  (  1,  1, 32)  (  1,  7, 66)  (  1,  7, 69)  (  1,  7, 72)
  0 -0.1190E-05  0 -0.7360E-06  1  0.1246E-04  0  0.9879E-05  0  0.1061E-04
   (  1,  6, 74)  (  1,  6, 77)  (  1,  4, 50)  (  1,  1, 51)  (  1,  1, 53)
  0  0.1054E-04  0  0.8445E-05  0  0.9755E-05  0  0.8610E-05  0  0.8069E-05
   (  1,  1, 48)  (  1,  1, 46)  (  1,  1, 44)  (  1,  2, 42)  (  1,  2, 39)
  0  0.7036E-05  0  0.6183E-05  0  0.4114E-05  0  0.2362E-05  0  0.1420E-05
   (  1,  2, 36)  (  1,  3, 34)  (  1,  3, 31)  (  1,  3, 28)  (  1,  7, 77)
  0  0.1430E-05  0  0.1797E-05  0  0.1385E-05  0  0.1251E-05  0  0.1478E-05
   (  1,  6, 79)  (  1,  3, 81)  (  1,  3, 84)  (  1,  3, 87)  (  1,  1,100)
  0  0.2152E-05  0  0.2048E-05  1 -0.1127E-04  0 -0.7570E-05  0 -0.6956E-05
   (  1,  6, 99)  (  1,  1,100)  (  1,  4, 50)  (  1,  1, 51)  (  1,  1, 53)
  0 -0.7004E-05  0 -0.5319E-05  0 -0.5652E-05  0 -0.5198E-05  0 -0.4953E-05
   (  1,  7, 52)  (  1,  7, 54)  (  1,  7, 56)  (  1,  2, 42)  (  1,  3, 40)
  0 -0.4518E-05  0 -0.4457E-05  0 -0.3323E-05  0 -0.2425E-05  0 -0.1380E-05
   (  1,  3, 37)  (  1,  3, 34)  (  1,  4, 32)  (  1,  4, 29)  (  1,  6, 27)
  0 -0.8496E-06  1 -0.2850E-05  0 -0.3853E-05  0 -0.4542E-05  0 -0.3310E-05
   (  1,  7, 79)  (  1,  4, 49)  (  1,  4, 46)  (  1,  7, 44)  (  1,  7, 40)
  0 -0.3037E-05  0 -0.3235E-05  0 -0.3410E-05  0 -0.2939E-05  0 -0.1503E-05
   (  1,  1, 45)  (  1,  1, 41)  (  1,  1, 37)  (  1,  1, 36)  (  1,  2, 33)
  0 -0.1143E-05  0 -0.1062E-05  0 -0.1012E-05  0 -0.1243E-05  0 -0.7078E-06
   (  1,  7, 66)  (  1,  7, 69)  (  1,  7, 72)  (  1,  6, 74)  (  1,  3, 76)
  1  0.1237E-04  0  0.9752E-05  0  0.1051E-04  0  0.1056E-04  0  0.8456E-05
   (  1,  4, 50)  (  1,  1, 51)  (  1,  1, 53)  (  1,  1, 48)  (  1,  1, 46)
  0  0.9811E-05  0  0.8683E-05  0  0.8067E-05  0  0.7036E-05  0  0.6192E-05
   (  1,  1, 44)  (  1,  2, 42)  (  1,  2, 39)  (  1,  2, 36)  (  1,  3, 34)
  0  0.4099E-05  0  0.2367E-05  0  0.1432E-05  0  0.1425E-05  0  0.1785E-05
   (  1,  3, 31)  (  1,  3, 28)  (  1,  7, 77)  (  1,  6, 79)  (  1,  6, 82)
  0  0.1374E-05  0  0.1240E-05  0  0.1445E-05  0  0.2109E-05  0  0.2031E-05
   (  1,  3, 84)  (  1,  3, 87)  (  1,  1,100)  (  1,  6, 99)  (  1,  1,100)
  1 -0.1121E-04  0 -0.7398E-05  0 -0.6640E-05  0 -0.6673E-05  0 -0.5163E-05
   (  1,  4, 50)  (  1,  1, 51)  (  1,  1, 53)  (  1,  7, 52)  (  1,  7, 54)
  0 -0.5565E-05  0 -0.5125E-05  0 -0.4845E-05  0 -0.4429E-05  0 -0.4392E-05
   (  1,  7, 56)  (  1,  2, 42)  (  1,  3, 40)  (  1,  3, 37)  (  1,  3, 34)
  0 -0.3320E-05  0 -0.2397E-05  0 -0.1377E-05  0 -0.8549E-06  1 -0.2926E-05
   (  1,  4, 32)  (  1,  4, 29)  (  1,  6, 27)  (  1,  7, 79)  (  1,  4, 49)
  0 -0.3918E-05  0 -0.4432E-05  0 -0.3120E-05  0 -0.2988E-05  0 -0.3285E-05
   (  1,  4, 46)  (  1,  7, 44)  (  1,  7, 40)  (  1,  1, 45)  (  1,  1, 41)
  0 -0.3533E-05  0 -0.3012E-05  0 -0.1357E-05  0 -0.1019E-05  0 -0.9324E-06
   (  1,  1, 37)  (  1,  1, 36)  (  1,  2, 33)  (  1,  7, 66)  (  1,  7, 69)
  1  0.1259E-04  0  0.9865E-05  0  0.1079E-04  0  0.1049E-04  0  0.8248E-05
   (  1,  4, 50)  (  1,  1, 51)  (  1,  1, 53)  (  1,  1, 48)  (  1,  1, 46)
  0  0.9415E-05  0  0.8418E-05  0  0.8094E-05  0  0.7143E-05  0  0.6293E-05
   (  1,  1, 44)  (  1,  2, 42)  (  1,  2, 39)  (  1,  3, 37)  (  1,  3, 34)
  0  0.4194E-05  0  0.2399E-05  0  0.1391E-05  0  0.1282E-05  0  0.1664E-05
   (  1,  3, 31)  (  1,  3, 28)  (  1,  7, 77)  (  1,  6, 79)  (  1,  4, 81)
  0  0.1433E-05  0  0.1315E-05  0  0.1386E-05  0  0.2074E-05  0  0.1793E-05
   (  1,  2, 83)  (  1,  2, 86)  (  1,  2, 90)  (  1,  1,100)  (  1,  6, 99)
  1 -0.1123E-04  0 -0.7505E-05  0 -0.6877E-05  0 -0.6985E-05  0 -0.5374E-05
   (  1,  4, 50)  (  1,  1, 51)  (  1,  1, 53)  (  1,  7, 52)  (  1,  7, 54)
  0 -0.5760E-05  0 -0.5219E-05  0 -0.5023E-05  0 -0.4660E-05  0 -0.4659E-05
   (  1,  7, 56)  (  1,  2, 42)  (  1,  3, 40)  (  1,  3, 37)  (  1,  3, 34)
  0 -0.3433E-05  0 -0.2449E-05  0 -0.1337E-05  0 -0.8749E-06  1 -0.2963E-05
   (  1,  3, 31)  (  1,  4, 29)  (  1,  7, 27)  (  1,  7, 80)  (  1,  4, 48)
  0 -0.3599E-05  0 -0.4269E-05  0 -0.3090E-05  0 -0.2742E-05  0 -0.3199E-05
   (  1,  4, 46)  (  1,  7, 44)  (  1,  7, 40)  (  1,  1, 43)  (  1,  1, 41)
  0 -0.3560E-05  0 -0.2967E-05  0 -0.1396E-05  0 -0.9923E-06  1  0.1259E-04
   (  1,  1, 36)  (  1,  1, 34)  (  1,  2, 32)  (  1,  7, 66)  (  1,  4, 50)
  0  0.1004E-04  0  0.1080E-04  0  0.1044E-04  0  0.8018E-05  0  0.9013E-05
   (  1,  1, 51)  (  1,  1, 53)  (  1,  1, 48)  (  1,  1, 46)  (  1,  1, 44)
  0  0.8281E-05  0  0.8286E-05  0  0.7289E-05  0  0.6208E-05  0  0.4220E-05
   (  1,  2, 42)  (  1,  2, 39)  (  1,  4, 37)  (  1,  3, 34)  (  1,  3, 31)
  0  0.2431E-05  0  0.1354E-05  0  0.1253E-05  0  0.1619E-05  0  0.1431E-05
   (  1,  3, 28)  (  1,  7, 76)  (  1,  7, 79)  (  1,  5, 81)  (  1,  2, 83)
  0  0.1282E-05  0  0.1383E-05  0  0.2047E-05  0  0.1753E-05  1 -0.1127E-04
   (  1,  2, 86)  (  1,  2, 90)  (  1,  1,100)  (  1,  6, 99)  (  1,  4, 50)
  0 -0.7484E-05  0 -0.6782E-05  0 -0.6814E-05  0 -0.5239E-05  0 -0.5607E-05
   (  1,  1, 51)  (  1,  1, 53)  (  1,  7, 52)  (  1,  7, 54)  (  1,  7, 56)
  0 -0.5140E-05  0 -0.4951E-05  0 -0.4576E-05  0 -0.4573E-05  0 -0.3387E-05
   (  1,  2, 42)  (  1,  3, 40)  (  1,  3, 37)  (  1,  3, 34)  (  1,  3, 31)
  0 -0.2419E-05  0 -0.1337E-05  0 -0.9048E-06  1 -0.2982E-05  0 -0.3645E-05
   (  1,  4, 29)  (  1,  7, 27)  (  1,  7, 80)  (  1,  4, 48)  (  1,  4, 46)
  0 -0.4150E-05  0 -0.3201E-05  0 -0.2797E-05  0 -0.3152E-05  0 -0.3410E-05
   (  1,  7, 45)  (  1,  7, 40)  (  1,  1, 43)  (  1,  1, 42)  (  1,  1, 36)
  0 -0.3048E-05  0 -0.1500E-05  0 -0.1026E-05  0 -0.1048E-05  0 -0.1062E-05
   (  1,  2, 37)  (  1,  2, 32)  (  1,  7, 65)  (  1,  6, 68)  (  1,  7, 72)
  0 -0.1226E-05  0 -0.7028E-06  1  0.1240E-04  0  0.9840E-05  0  0.1059E-04
   (  1,  6, 75)  (  1,  3, 77)  (  1,  4, 50)  (  1,  1, 51)  (  1,  1, 53)
  0  0.1057E-04  0  0.8426E-05  0  0.9708E-05  0  0.8573E-05  0  0.8089E-05
   (  1,  1, 48)  (  1,  1, 46)  (  1,  1, 44)  (  1,  2, 42)  (  1,  2, 39)
  0  0.7094E-05  0  0.6184E-05  0  0.4085E-05  0  0.2352E-05  0  0.1433E-05
   (  1,  2, 36)  (  1,  3, 34)  (  1,  3, 31)  (  1,  3, 28)  (  1,  7, 77)
  0  0.1406E-05  0  0.1748E-05  0  0.1390E-05  0  0.1259E-05  0  0.1302E-05
   (  1,  6, 79)  (  1,  3, 81)  (  1,  3, 84)  (  1,  3, 87)  (  1,  3, 90)
  0  0.2267E-05  0  0.1881E-05  1 -0.1126E-04  0 -0.7533E-05  0 -0.6861E-05
   (  1,  1,100)  (  1,  6, 99)  (  1,  4, 50)  (  1,  1, 51)  (  1,  1, 53)
  0 -0.6880E-05  0 -0.5217E-05  0 -0.5600E-05  0 -0.5144E-05  0 -0.4943E-05
   (  1,  7, 52)  (  1,  7, 54)  (  1,  7, 56)  (  1,  2, 42)  (  1,  3, 40)
  0 -0.4589E-05  0 -0.4594E-05  0 -0.3379E-05  0 -0.2423E-05  0 -0.1354E-05
   (  1,  3, 37)  (  1,  3, 34)  (  1,  4, 32)  (  1,  4, 29)  (  1,  6, 27)
  0 -0.8440E-06  1 -0.2872E-05  0 -0.3708E-05  0 -0.4278E-05  0 -0.3129E-05
   (  1,  7, 79)  (  1,  4, 49)  (  1,  4, 46)  (  1,  7, 44)  (  1,  7, 40)
  0 -0.3018E-05  0 -0.3160E-05  0 -0.3432E-05  0 -0.3056E-05  0 -0.1383E-05
   (  1,  1, 45)  (  1,  1, 41)  (  1,  1, 38)  (  1,  1, 36)  (  1,  1, 32)
  0 -0.1000E-05  0 -0.9265E-06  1  0.1261E-04  0  0.9912E-05  0  0.1080E-04
   (  1,  7, 65)  (  1,  7, 69)  (  1,  4, 50)  (  1,  1, 51)  (  1,  1, 53)
  0  0.1047E-04  0  0.8223E-05  0  0.9461E-05  0  0.8522E-05  0  0.8201E-05
   (  1,  1, 48)  (  1,  1, 46)  (  1,  1, 44)  (  1,  2, 42)  (  1,  2, 39)
  0  0.7170E-05  0  0.6253E-05  0  0.4182E-05  0  0.2436E-05  0  0.1441E-05
   (  1,  2, 36)  (  1,  3, 34)  (  1,  3, 31)  (  1,  3, 28)  (  1,  7, 77)
  0  0.1363E-05  0  0.1699E-05  0  0.1351E-05  0  0.1275E-05  0  0.1387E-05
   (  1,  6, 79)  (  1,  3, 81)  (  1,  3, 84)  (  1,  3, 87)  (  1,  1,100)
  0  0.2026E-05  0  0.1937E-05  1 -0.1123E-04  0 -0.7452E-05  0 -0.6752E-05
   (  1,  2, 98)  (  1,  1,100)  (  1,  4, 50)  (  1,  1, 51)  (  1,  1, 53)
  0 -0.6824E-05  0 -0.5256E-05  0 -0.5634E-05  0 -0.5164E-05  0 -0.4961E-05
   (  1,  7, 52)  (  1,  7, 54)  (  1,  7, 56)  (  1,  2, 42)  (  1,  3, 40)
  0 -0.4528E-05  0 -0.4456E-05  0 -0.3327E-05  0 -0.2431E-05  0 -0.1412E-05
   (  1,  3, 37)  (  1,  3, 34)  (  1,  4, 32)  (  1,  4, 29)  (  1,  6, 27)
  0 -0.8828E-06  1 -0.2889E-05  0 -0.3906E-05  0 -0.4422E-05  0 -0.3125E-05
   (  1,  7, 79)  (  1,  4, 49)  (  1,  4, 46)  (  1,  7, 44)  (  1,  7, 40)
  0 -0.2969E-05  0 -0.3268E-05  0 -0.3441E-05  0 -0.2925E-05  0 -0.1404E-05
   (  1,  1, 45)  (  1,  1, 41)  (  1,  1, 37)  (  1,  1, 36)  (  1,  2, 33)
  0 -0.1020E-05  0 -0.9862E-06  1  0.1262E-04  0  0.9911E-05  0  0.1090E-04
   (  1,  7, 66)  (  1,  7, 69)  (  1,  4, 50)  (  1,  1, 51)  (  1,  1, 53)
  0  0.1063E-04  0  0.8347E-05  0  0.9485E-05  0  0.8388E-05  0  0.8059E-05
   (  1,  1, 48)  (  1,  1, 46)  (  1,  1, 44)  (  1,  2, 42)  (  1,  2, 39)
  0  0.7153E-05  0  0.6316E-05  0  0.4191E-05  0  0.2406E-05  0  0.1390E-05
   (  1,  2, 36)  (  1,  3, 34)  (  1,  3, 31)  (  1,  3, 28)  (  1,  7, 77)
  0  0.1299E-05  0  0.1683E-05  0  0.1435E-05  0  0.1359E-05  0  0.1419E-05
   (  1,  6, 79)  (  1,  3, 81)  (  1,  2, 84)  (  1,  3, 87)  (  1,  2, 90)
  0  0.2162E-05  0  0.1806E-05  1 -0.1121E-04  0 -0.7418E-05  0 -0.6738E-05
   (  1,  1,100)  (  1,  6, 99)  (  1,  4, 50)  (  1,  1, 51)  (  1,  1, 53)
  0 -0.6851E-05  0 -0.5260E-05  0 -0.5626E-05  0 -0.5135E-05  0 -0.4907E-05
   (  1,  7, 52)  (  1,  7, 54)  (  1,  7, 56)  (  1,  2, 42)  (  1,  3, 40)
  0 -0.4498E-05  0 -0.4484E-05  0 -0.3320E-05  0 -0.2399E-05  0 -0.1344E-05
   (  1,  3, 37)  (  1,  3, 34)  (  1,  3, 31)  (  1,  4, 29)  (  1,  6, 27)
  0 -0.8531E-06  1 -0.2861E-05  0 -0.3758E-05  0 -0.4310E-05  0 -0.3086E-05
   (  1,  7, 79)  (  1,  4, 48)  (  1,  4, 46)  (  1,  7, 44)  (  1,  7, 40)
  0 -0.2911E-05  0 -0.3208E-05  0 -0.3457E-05  0 -0.2971E-05  0 -0.1354E-05
   (  1,  1, 45)  (  1,  1, 41)  (  1,  1, 36)  (  1,  1, 36)  (  1,  1, 32)
  0 -0.1009E-05  0 -0.9845E-06  1  0.1265E-04  0  0.9928E-05  0  0.1083E-04
   (  1,  7, 66)  (  1,  7, 69)  (  1,  4, 50)  (  1,  1, 51)  (  1,  1, 53)
  0  0.1052E-04  0  0.8356E-05  0  0.9552E-05  0  0.8450E-05  0  0.8100E-05
   (  1,  1, 48)  (  1,  1, 46)  (  1,  1, 44)  (  1,  2, 42)  (  1,  2, 39)
  0  0.7174E-05  0  0.6409E-05  0  0.4221E-05  0  0.2399E-05  0  0.1411E-05
   (  1,  2, 36)  (  1,  3, 34)  (  1,  3, 31)  (  1,  3, 28)  (  1,  7, 77)
  0  0.1342E-05  0  0.1725E-05  0  0.1399E-05  0  0.1312E-05  0  0.1408E-05
   (  1,  6, 79)  (  1,  3, 81)  (  1,  2, 84)  (  1,  3, 87)  (  1,  1,100)
  0  0.2039E-05  0  0.1953E-05  1 -0.1128E-04  0 -0.7575E-05  0 -0.6956E-05
   (  1,  2, 98)  (  1,  1,100)  (  1,  4, 50)  (  1,  1, 51)  (  1,  1, 53)
  0 -0.7009E-05  0 -0.5412E-05  0 -0.5816E-05  0 -0.5257E-05  0 -0.5017E-05
   (  1,  7, 52)  (  1,  7, 54)  (  1,  7, 56)  (  1,  2, 42)  (  1,  3, 40)
  0 -0.4647E-05  0 -0.4641E-05  0 -0.3440E-05  0 -0.2455E-05  0 -0.1393E-05
   (  1,  3, 37)  (  1,  3, 34)  (  1,  4, 32)  (  1,  4, 29)  (  1,  6, 27)
  0 -0.8771E-06  1 -0.2894E-05  0 -0.3877E-05  0 -0.4378E-05  0 -0.3139E-05
   (  1,  7, 79)  (  1,  4, 47)  (  1,  4, 46)  (  1,  7, 44)  (  1,  7, 40)
  0 -0.2890E-05  0 -0.3271E-05  0 -0.3499E-05  0 -0.3028E-05  0 -0.1454E-05
   (  1,  1, 45)  (  1,  1, 41)  (  1,  1, 37)  (  1,  1, 36)  (  1,  2, 33)
  0 -0.1042E-05  0 -0.9921E-06  1  0.1264E-04  0  0.9948E-05  0  0.1085E-04
   (  1,  7, 66)  (  1,  7, 69)  (  1,  4, 50)  (  1,  1, 51)  (  1,  1, 53)
  0  0.1048E-04  0  0.8202E-05  0  0.9328E-05  0  0.8315E-05  0  0.8092E-05
   (  1,  1, 48)  (  1,  1, 46)  (  1,  1, 44)  (  1,  2, 42)  (  1,  2, 39)
  0  0.7190E-05  0  0.6363E-05  0  0.4212E-05  0  0.2402E-05  0  0.1389E-05
   (  1,  3, 37)  (  1,  3, 34)  (  1,  3, 31)  (  1,  3, 28)  (  1,  7, 77)
  0  0.1289E-05  0  0.1654E-05  0  0.1407E-05  0  0.1316E-05  0  0.1388E-05
   (  1,  6, 79)  (  1,  3, 81)  (  1,  2, 83)  (  1,  2, 86)  (  1,  2, 90)
  0  0.2109E-05  0  0.1791E-05  1 -0.1125E-04  0 -0.7470E-05  0 -0.6711E-05
   (  1,  1,100)  (  1,  6, 99)  (  1,  4, 50)  (  1,  1, 51)  (  1,  1, 53)
  0 -0.6714E-05  0 -0.5123E-05  0 -0.5516E-05  0 -0.5058E-05  0 -0.4891E-05
   (  1,  7, 52)  (  1,  7, 54)  (  1,  7, 56)  (  1,  2, 42)  (  1,  3, 40)
  0 -0.4562E-05  0 -0.4574E-05  0 -0.3361E-05  0 -0.2402E-05  0 -0.1316E-05
   (  1,  3, 37)  (  1,  3, 34)  (  1,  3, 31)  (  1,  4, 29)  (  1,  7, 27)
  0 -0.8523E-06  1 -0.2923E-05  0 -0.3778E-05  0 -0.4464E-05  0 -0.3188E-05
   (  1,  7, 79)  (  1,  4, 48)  (  1,  4, 46)  (  1,  7, 44)  (  1,  7, 40)
  0 -0.3010E-05  0 -0.3311E-05  0 -0.3618E-05  0 -0.3003E-05  0 -0.1326E-05
   (  1,  1, 45)  (  1,  1, 41)  (  1,  1, 36)  (  1,  1, 36)  (  1,  1, 32)
  0 -0.9280E-06  1  0.1260E-04  0  0.1008E-04  0  0.1082E-04  0  0.1049E-04
   (  1,  7, 66)  (  1,  4, 50)  (  1,  1, 51)  (  1,  1, 53)  (  1,  1, 48)
  0  0.8091E-05  0  0.9057E-05  0  0.8242E-05  0  0.8242E-05  0  0.7299E-05
   (  1,  1, 46)  (  1,  1, 44)  (  1,  2, 42)  (  1,  2, 39)  (  1,  2, 36)
  0  0.6180E-05  0  0.4212E-05  0  0.2443E-05  0  0.1347E-05  0  0.1250E-05
   (  1,  3, 34)  (  1,  3, 31)  (  1,  3, 28)  (  1,  7, 76)  (  1,  7, 79)
  0  0.1639E-05  0  0.1460E-05  0  0.1301E-05  0  0.1404E-05  0  0.2061E-05
   (  1,  5, 81)  (  1,  2, 83)  (  1,  2, 86)  (  1,  2, 90)  (  1,  1,100)
  0  0.1774E-05  1 -0.1127E-04  0 -0.7501E-05  0 -0.6826E-05  0 -0.6870E-05
   (  1,  6, 99)  (  1,  4, 50)  (  1,  1, 51)  (  1,  1, 53)  (  1,  7, 52)
  0 -0.5280E-05  0 -0.5649E-05  0 -0.5167E-05  0 -0.4970E-05  0 -0.4592E-05
   (  1,  7, 54)  (  1,  7, 56)  (  1,  2, 42)  (  1,  3, 40)  (  1,  3, 37)
  0 -0.4576E-05  0 -0.3399E-05  0 -0.2431E-05  0 -0.1327E-05  0 -0.9166E-06
   (  1,  3, 34)  (  1,  3, 31)  (  1,  4, 29)  (  1,  7, 27)  (  1,  7, 80)
  1 -0.3174E-05  0 -0.3810E-05  0 -0.4315E-05  0 -0.3490E-05  0 -0.3159E-05
   (  1,  4, 48)  (  1,  4, 46)  (  1,  7, 45)  (  1,  7, 40)  (  1,  1, 42)
  0 -0.3294E-05  0 -0.3451E-05  0 -0.2899E-05  0 -0.1366E-05  0 -0.9934E-06
   (  1,  1, 39)  (  1,  1, 37)  (  1,  1, 35)  (  1,  3, 33)  (  1,  7, 67)
  1  0.1257E-04  0  0.1003E-04  0  0.1073E-04  0  0.1040E-04  0  0.8068E-05
   (  1,  4, 50)  (  1,  1, 51)  (  1,  1, 53)  (  1,  1, 48)  (  1,  1, 46)
  0  0.9087E-05  0  0.8170E-05  0  0.7989E-05  0  0.7000E-05  0  0.6073E-05
   (  1,  1, 44)  (  1,  2, 42)  (  1,  2, 39)  (  1,  3, 37)  (  1,  2, 34)
  0  0.4403E-05  0  0.2548E-05  0  0.1428E-05  0  0.1263E-05  0  0.1648E-05
   (  1,  2, 31)  (  1,  4, 29)  (  1,  7, 76)  (  1,  7, 79)  (  1,  5, 81)
  0  0.1485E-05  0  0.1310E-05  0  0.1393E-05  0  0.1964E-05  0  0.1758E-05
   (  1,  2, 83)  (  1,  2, 86)  (  1,  2, 90)  (  1,  3, 95)  (  1,  1,100)
  1 -0.1126E-04  0 -0.7454E-05  0 -0.6742E-05  0 -0.6804E-05  0 -0.5251E-05
   (  1,  4, 50)  (  1,  1, 51)  (  1,  1, 53)  (  1,  7, 52)  (  1,  7, 54)
  0 -0.5672E-05  0 -0.5229E-05  0 -0.4987E-05  0 -0.4556E-05  0 -0.4529E-05
   (  1,  7, 56)  (  1,  6, 58)  (  1,  3, 40)  (  1,  3, 37)  (  1,  3, 34)
  0 -0.3359E-05  0 -0.2415E-05  0 -0.1346E-05  0 -0.8872E-06  1 -0.2854E-05
   (  1,  3, 31)  (  1,  4, 29)  (  1,  7, 27)  (  1,  7, 80)  (  1,  4, 48)
  0 -0.3668E-05  0 -0.4105E-05  0 -0.3059E-05  0 -0.2800E-05  0 -0.3089E-05
   (  1,  4, 46)  (  1,  7, 44)  (  1,  7, 40)  (  1,  1, 45)  (  1,  1, 41)
  0 -0.3327E-05  0 -0.3032E-05  0 -0.1405E-05  0 -0.1020E-05  0 -0.1015E-05
   (  1,  1, 36)  (  1,  1, 36)  (  1,  2, 32)  (  1,  7, 65)  (  1,  7, 68)
  0 -0.1047E-05  0 -0.1237E-05  0 -0.7545E-06  1  0.1242E-04  0  0.9847E-05
   (  1,  7, 72)  (  1,  5, 74)  (  1,  4, 77)  (  1,  4, 50)  (  1,  1, 51)
  0  0.1058E-04  0  0.1052E-04  0  0.8439E-05  0  0.9780E-05  0  0.8664E-05
   (  1,  1, 53)  (  1,  1, 48)  (  1,  1, 46)  (  1,  1, 44)  (  1,  2, 42)
  0  0.8102E-05  0  0.7042E-05  0  0.6129E-05  0  0.4075E-05  0  0.2352E-05
   (  1,  2, 39)  (  1,  2, 36)  (  1,  3, 34)  (  1,  3, 31)  (  1,  3, 28)
  0  0.1436E-05  0  0.1428E-05  0  0.1770E-05  0  0.1378E-05  0  0.1238E-05
   (  1,  7, 77)  (  1,  6, 79)  (  1,  3, 81)  (  1,  3, 84)  (  1,  3, 87)
  0  0.1415E-05  0  0.2109E-05  0  0.2016E-05  1 -0.1127E-04  0 -0.7518E-05
   (  1,  1,100)  (  1,  6, 99)  (  1,  1,100)  (  1,  4, 50)  (  1,  1, 51)
  0 -0.6797E-05  0 -0.6789E-05  0 -0.5206E-05  0 -0.5606E-05  0 -0.5177E-05
   (  1,  1, 53)  (  1,  7, 52)  (  1,  7, 54)  (  1,  7, 56)  (  1,  2, 42)
  0 -0.4958E-05  0 -0.4587E-05  0 -0.4584E-05  0 -0.3368E-05  0 -0.2418E-05
   (  1,  3, 40)  (  1,  3, 37)  (  1,  3, 34)  (  1,  3, 31)  (  1,  4, 29)
  0 -0.1349E-05  0 -0.8479E-06  1 -0.2772E-05  0 -0.3802E-05  0 -0.4463E-05
   (  1,  6, 27)  (  1,  7, 79)  (  1,  4, 48)  (  1,  4, 46)  (  1,  7, 44)
  0 -0.3251E-05  0 -0.2992E-05  0 -0.3305E-05  0 -0.3528E-05  0 -0.3047E-05
   (  1,  7, 40)  (  1,  1, 45)  (  1,  1, 41)  (  1,  1, 37)  (  1,  1, 36)
  0 -0.1358E-05  0 -0.9825E-06  1  0.1260E-04  0  0.1010E-04  0  0.1083E-04
   (  1,  1, 32)  (  1,  7, 66)  (  1,  4, 50)  (  1,  1, 51)  (  1,  1, 53)
  0  0.1045E-04  0  0.8075E-05  0  0.9019E-05  0  0.8226E-05  0  0.8215E-05
   (  1,  1, 48)  (  1,  1, 46)  (  1,  1, 44)  (  1,  2, 42)  (  1,  2, 39)
  0  0.7290E-05  0  0.6259E-05  0  0.4220E-05  0  0.2431E-05  0  0.1336E-05
   (  1,  2, 36)  (  1,  3, 34)  (  1,  3, 31)  (  1,  3, 28)  (  1,  7, 76)
  0  0.1250E-05  0  0.1627E-05  0  0.1442E-05  0  0.1293E-05  0  0.1390E-05
   (  1,  7, 79)  (  1,  4, 81)  (  1,  2, 83)  (  1,  2, 86)  (  1,  2, 90)
  0  0.2033E-05  0  0.1834E-05  1 -0.1125E-04  0 -0.7427E-05  0 -0.6706E-05
   (  1,  7, 99)  (  1,  1,100)  (  1,  4, 50)  (  1,  1, 51)  (  1,  1, 53)
  0 -0.6785E-05  0 -0.5258E-05  0 -0.5630E-05  0 -0.5114E-05  0 -0.4897E-05
   (  1,  7, 52)  (  1,  7, 54)  (  1,  7, 56)  (  1,  2, 42)  (  1,  3, 40)
  0 -0.4538E-05  0 -0.4543E-05  0 -0.3360E-05  0 -0.2391E-05  0 -0.1316E-05
   (  1,  3, 37)  (  1,  3, 34)  (  1,  3, 31)  (  1,  4, 29)  (  1,  7, 27)
  0 -0.8564E-06  1 -0.2889E-05  0 -0.3767E-05  0 -0.4235E-05  0 -0.3089E-05
   (  1,  6, 79)  (  1,  4, 48)  (  1,  4, 46)  (  1,  7, 44)  (  1,  7, 40)
  0 -0.2830E-05  0 -0.3336E-05  0 -0.3495E-05  0 -0.2952E-05  0 -0.1322E-05
   (  1,  1, 45)  (  1,  1, 41)  (  1,  1, 36)  (  1,  1, 36)  (  1,  1, 32)
  0 -0.9398E-06  1  0.1263E-04  0  0.1017E-04  0  0.1093E-04  0  0.1056E-04
   (  1,  7, 67)  (  1,  4, 50)  (  1,  1, 51)  (  1,  1, 53)  (  1,  1, 48)
  0  0.8122E-05  0  0.9062E-05  0  0.8204E-05  0  0.8210E-05  0  0.7250E-05
   (  1,  1, 46)  (  1,  1, 44)  (  1,  2, 42)  (  1,  2, 39)  (  1,  2, 36)
  0  0.6166E-05  0  0.4162E-05  0  0.2437E-05  0  0.1335E-05  0  0.1283E-05
   (  1,  3, 34)  (  1,  3, 31)  (  1,  3, 28)  (  1,  7, 77)  (  1,  6, 79)
  0  0.1643E-05  0  0.1415E-05  0  0.1312E-05  0  0.1420E-05  0  0.2087E-05
   (  1,  4, 81)  (  1,  2, 83)  (  1,  3, 87)  (  1,  2, 90)  (  1,  7, 99)
  0  0.1880E-05  1 -0.1130E-04  0 -0.7619E-05  0 -0.7012E-05  0 -0.7037E-05
   (  1,  1,100)  (  1,  4, 50)  (  1,  1, 51)  (  1,  1, 53)  (  1,  7, 52)
  0 -0.5326E-05  0 -0.5623E-05  0 -0.5163E-05  0 -0.4977E-05  0 -0.4586E-05
   (  1,  7, 54)  (  1,  7, 56)  (  1,  2, 42)  (  1,  3, 40)  (  1,  3, 37)
  0 -0.4503E-05  0 -0.3321E-05  0 -0.2425E-05  0 -0.1372E-05  0 -0.8566E-06
   (  1,  3, 34)  (  1,  3, 31)  (  1,  4, 29)  (  1,  6, 27)  (  1,  7, 79)
  1 -0.2906E-05  0 -0.3850E-05  0 -0.4457E-05  0 -0.3233E-05  0 -0.2938E-05
   (  1,  4, 47)  (  1,  4, 46)  (  1,  7, 44)  (  1,  7, 40)  (  1,  1, 45)
  0 -0.3210E-05  0 -0.3496E-05  0 -0.2971E-05  0 -0.1383E-05  0 -0.1110E-05
   (  1,  1, 41)  (  1,  1, 37)  (  1,  1, 36)  (  1,  1, 32)  (  1,  7, 66)
  0 -0.1058E-05  0 -0.1026E-05  0 -0.1203E-05  0 -0.7265E-06  1  0.1244E-04
   (  1,  7, 69)  (  1,  7, 72)  (  1,  6, 74)  (  1,  6, 77)  (  1,  4, 50)
  0  0.9833E-05  0  0.1057E-04  0  0.1049E-04  0  0.8376E-05  0  0.9664E-05
   (  1,  1, 51)  (  1,  1, 53)  (  1,  1, 48)  (  1,  1, 46)  (  1,  1, 44)
  0  0.8607E-05  0  0.8115E-05  0  0.7076E-05  0  0.6198E-05  0  0.4129E-05
   (  1,  2, 42)  (  1,  2, 39)  (  1,  2, 36)  (  1,  3, 34)  (  1,  3, 31)
  0  0.2363E-05  0  0.1442E-05  0  0.1445E-05  0  0.1805E-05  0  0.1383E-05
   (  1,  3, 28)  (  1,  7, 77)  (  1,  6, 79)  (  1,  5, 82)  (  1,  2, 84)
  0  0.1294E-05  0  0.1400E-05  0  0.2196E-05  0  0.2079E-05  1 -0.1124E-04
   (  1,  3, 87)  (  1,  1,100)  (  1,  6, 99)  (  1,  1,100)  (  1,  4, 50)
  0 -0.7487E-05  0 -0.6794E-05  0 -0.6819E-05  0 -0.5208E-05  0 -0.5539E-05
   (  1,  1, 51)  (  1,  1, 53)  (  1,  7, 52)  (  1,  7, 54)  (  1,  7, 56)
  0 -0.5073E-05  0 -0.4793E-05  0 -0.4354E-05  0 -0.4393E-05  0 -0.3501E-05
   (  1,  2, 42)  (  1,  3, 40)  (  1,  3, 37)  (  1,  4, 35)  (  1,  4, 32)
  0 -0.2492E-05  0 -0.1442E-05  0 -0.8634E-06  1 -0.2927E-05  0 -0.3901E-05
   (  1,  3, 29)  (  1,  6, 27)  (  1,  7, 79)  (  1,  4, 49)  (  1,  4, 46)
  0 -0.4499E-05  0 -0.3215E-05  0 -0.3007E-05  0 -0.3267E-05  0 -0.3495E-05
   (  1,  7, 44)  (  1,  7, 39)  (  1,  1, 45)  (  1,  1, 42)  (  1,  1, 37)
  0 -0.2970E-05  0 -0.1397E-05  0 -0.1006E-05  0 -0.9729E-06  1  0.1261E-04
   (  1,  1, 34)  (  1,  2, 33)  (  1,  7, 66)  (  1,  7, 69)  (  1,  4, 50)
  0  0.9913E-05  0  0.1090E-04  0  0.1063E-04  0  0.8283E-05  0  0.9440E-05
   (  1,  1, 51)  (  1,  1, 53)  (  1,  1, 48)  (  1,  1, 46)  (  1,  1, 44)
  0  0.8471E-05  0  0.8098E-05  0  0.7095E-05  0  0.6240E-05  0  0.4189E-05
   (  1,  2, 42)  (  1,  2, 39)  (  1,  3, 37)  (  1,  3, 34)  (  1,  3, 31)
  0  0.2392E-05  0  0.1370E-05  0  0.1262E-05  0  0.1689E-05  0  0.1495E-05
   (  1,  3, 28)  (  1,  7, 76)  (  1,  7, 79)  (  1,  5, 81)  (  1,  2, 83)
  0  0.1343E-05  0  0.1425E-05  0  0.2065E-05  0  0.1772E-05  1 -0.1126E-04
   (  1,  2, 86)  (  1,  2, 90)  (  1,  1,100)  (  1,  6, 99)  (  1,  4, 50)
  0 -0.7537E-05  0 -0.6889E-05  0 -0.6932E-05  0 -0.5279E-05  0 -0.5666E-05
   (  1,  1, 51)  (  1,  1, 53)  (  1,  7, 52)  (  1,  7, 54)  (  1,  7, 56)
  0 -0.5234E-05  0 -0.5052E-05  0 -0.4634E-05  0 -0.4582E-05  0 -0.3416E-05
   (  1,  2, 42)  (  1,  3, 40)  (  1,  3, 37)  (  1,  3, 34)  (  1,  3, 31)
  0 -0.2473E-05  0 -0.1354E-05  0 -0.9236E-06  1 -0.3099E-05  0 -0.3574E-05
   (  1,  4, 29)  (  1,  7, 27)  (  1,  7, 80)  (  1,  4, 48)  (  1,  4, 46)
  0 -0.4158E-05  0 -0.3281E-05  0 -0.2863E-05  0 -0.3122E-05  0 -0.3263E-05
   (  1,  7, 45)  (  1,  7, 40)  (  1,  1, 43)  (  1,  1, 42)  (  1,  1, 36)
  0 -0.2859E-05  0 -0.1474E-05  0 -0.9712E-06  1  0.1263E-04  0  0.1011E-04
   (  1,  2, 37)  (  1,  2, 32)  (  1,  7, 66)  (  1,  4, 50)  (  1,  1, 51)
  0  0.1078E-04  0  0.1048E-04  0  0.8173E-05  0  0.9184E-05  0  0.8276E-05
   (  1,  1, 53)  (  1,  1, 48)  (  1,  1, 46)  (  1,  1, 44)  (  1,  2, 42)
  0  0.8166E-05  0  0.7240E-05  0  0.6175E-05  0  0.4267E-05  0  0.2431E-05
   (  1,  2, 39)  (  1,  3, 37)  (  1,  3, 34)  (  1,  3, 31)  (  1,  3, 28)
  0  0.1355E-05  0  0.1248E-05  0  0.1676E-05  0  0.1498E-05  0  0.1307E-05
   (  1,  7, 76)  (  1,  7, 79)  (  1,  5, 81)  (  1,  2, 83)  (  1,  2, 86)
  0  0.1404E-05  0  0.2040E-05  0  0.1784E-05  1 -0.1127E-04  0 -0.7533E-05
   (  1,  2, 90)  (  1,  1,100)  (  1,  6, 99)  (  1,  4, 50)  (  1,  1, 51)
  0 -0.6887E-05  0 -0.6961E-05  0 -0.5402E-05  0 -0.5857E-05  0 -0.5326E-05
   (  1,  1, 53)  (  1,  7, 52)  (  1,  7, 54)  (  1,  7, 56)  (  1,  6, 58)
  0 -0.5080E-05  0 -0.4710E-05  0 -0.4737E-05  0 -0.3506E-05  0 -0.2484E-05
   (  1,  3, 40)  (  1,  3, 37)  (  1,  3, 34)  (  1,  3, 31)  (  1,  4, 29)
  0 -0.1342E-05  0 -0.9242E-06  1 -0.3225E-05  0 -0.3453E-05  0 -0.3956E-05
   (  1,  7, 27)  (  1,  7, 80)  (  1,  4, 48)  (  1,  4, 46)  (  1,  7, 45)
  0 -0.3158E-05  0 -0.2763E-05  0 -0.2981E-05  0 -0.3294E-05  0 -0.2872E-05
   (  1,  7, 40)  (  1,  1, 43)  (  1,  2, 42)  (  1,  1, 36)  (  1,  1, 34)
  0 -0.1523E-05  0 -0.1080E-05  0 -0.1124E-05  0 -0.1083E-05  0 -0.1289E-05
   (  1,  2, 32)  (  1,  7, 66)  (  1,  7, 69)  (  1,  6, 72)  (  1,  4, 75)
  0 -0.7409E-06  1  0.1241E-04  0  0.9841E-05  0  0.1065E-04  0  0.1066E-04
   (  1,  4, 78)  (  1,  4, 50)  (  1,  1, 51)  (  1,  1, 53)  (  1,  1, 48)
  0  0.8527E-05  0  0.9842E-05  0  0.8714E-05  0  0.8122E-05  0  0.7092E-05
   (  1,  1, 46)  (  1,  1, 44)  (  1,  2, 42)  (  1,  2, 39)  (  1,  2, 36)
  0  0.6201E-05  0  0.4098E-05  0  0.2344E-05  0  0.1440E-05  0  0.1409E-05
   (  1,  3, 34)  (  1,  3, 31)  (  1,  3, 28)  (  1,  7, 77)  (  1,  6, 79)
  0  0.1752E-05  0  0.1411E-05  0  0.1262E-05  0  0.1373E-05  0  0.2091E-05
   (  1,  3, 81)  (  1,  3, 84)  (  1,  3, 87)  (  1,  1,100)  (  1,  7, 99)
  0  0.1994E-05  1 -0.1128E-04  0 -0.7587E-05  0 -0.7033E-05  0 -0.7126E-05
   (  1,  1,100)  (  1,  4, 50)  (  1,  1, 51)  (  1,  1, 53)  (  1,  7, 52)
  0 -0.5459E-05  0 -0.5790E-05  0 -0.5293E-05  0 -0.5070E-05  0 -0.4659E-05
   (  1,  7, 54)  (  1,  7, 56)  (  1,  2, 42)  (  1,  3, 40)  (  1,  3, 37)
  0 -0.4613E-05  0 -0.3421E-05  0 -0.2468E-05  0 -0.1395E-05  0 -0.8620E-06
   (  1,  3, 34)  (  1,  4, 32)  (  1,  4, 29)  (  1,  6, 27)  (  1,  7, 79)
  1 -0.2965E-05  0 -0.3901E-05  0 -0.4400E-05  0 -0.3158E-05  0 -0.2954E-05
   (  1,  4, 47)  (  1,  4, 46)  (  1,  7, 44)  (  1,  7, 40)  (  1,  1, 45)
  0 -0.3284E-05  0 -0.3498E-05  0 -0.3009E-05  0 -0.1432E-05  0 -0.1109E-05
   (  1,  1, 41)  (  1,  1, 37)  (  1,  1, 36)  (  1,  1, 32)  (  1,  7, 66)
  0 -0.1080E-05  0 -0.1067E-05  0 -0.1260E-05  0 -0.7432E-06  1  0.1244E-04
   (  1,  7, 69)  (  1,  7, 72)  (  1,  6, 74)  (  1,  3, 76)  (  1,  4, 50)
  0  0.9805E-05  0  0.1048E-04  0  0.1040E-04  0  0.8365E-05  0  0.9740E-05
   (  1,  1, 51)  (  1,  1, 53)  (  1,  1, 48)  (  1,  1, 46)  (  1,  1, 44)
  0  0.8682E-05  0  0.8118E-05  0  0.7061E-05  0  0.6205E-05  0  0.4141E-05
   (  1,  2, 42)  (  1,  2, 39)  (  1,  2, 36)  (  1,  3, 34)  (  1,  3, 31)
  0  0.2359E-05  0  0.1435E-05  0  0.1429E-05  0  0.1771E-05  0  0.1354E-05
   (  1,  3, 28)  (  1,  7, 77)  (  1,  6, 79)  (  1,  3, 81)  (  1,  3, 84)
  0  0.1214E-05  0  0.1412E-05  0  0.2100E-05  0  0.2036E-05  1 -0.1124E-04
   (  1,  3, 87)  (  1,  1,100)  (  1,  6, 99)  (  1,  1,100)  (  1,  4, 50)
  0 -0.7500E-05  0 -0.6807E-05  0 -0.6806E-05  0 -0.5217E-05  0 -0.5597E-05
   (  1,  1, 51)  (  1,  1, 53)  (  1,  7, 52)  (  1,  7, 54)  (  1,  7, 56)
  0 -0.5176E-05  0 -0.4926E-05  0 -0.4477E-05  0 -0.4406E-05  0 -0.3333E-05
   (  1,  2, 42)  (  1,  3, 40)  (  1,  3, 37)  (  1,  3, 34)  (  1,  4, 32)
  0 -0.2424E-05  0 -0.1401E-05  0 -0.8657E-06  1 -0.2855E-05  0 -0.3788E-05
   (  1,  4, 29)  (  1,  6, 27)  (  1,  7, 79)  (  1,  4, 49)  (  1,  4, 46)
  0 -0.4325E-05  0 -0.3072E-05  0 -0.2941E-05  0 -0.3144E-05  0 -0.3422E-05
   (  1,  7, 44)  (  1,  7, 40)  (  1,  1, 45)  (  1,  1, 41)  (  1,  1, 37)
  0 -0.2999E-05  0 -0.1400E-05  0 -0.1052E-05  0 -0.1002E-05  0 -0.1007E-05
   (  1,  1, 36)  (  1,  2, 33)  (  1,  7, 66)  (  1,  7, 69)  (  1,  7, 72)
  0 -0.1245E-05  0 -0.7681E-06  1  0.1245E-04  0  0.9920E-05  0  0.1072E-04
   (  1,  6, 74)  (  1,  6, 77)  (  1,  4, 50)  (  1,  1, 51)  (  1,  1, 53)
  0  0.1063E-04  0  0.8529E-05  0  0.9925E-05  0  0.8770E-05  0  0.8154E-05
   (  1,  1, 48)  (  1,  1, 46)  (  1,  1, 44)  (  1,  2, 42)  (  1,  2, 39)
  0  0.7033E-05  0  0.6108E-05  0  0.4092E-05  0  0.2391E-05  0  0.1449E-05
   (  1,  2, 36)  (  1,  3, 34)  (  1,  3, 31)  (  1,  3, 28)  (  1,  7, 77)
  0  0.1482E-05  0  0.1855E-05  0  0.1389E-05  0  0.1303E-05  0  0.1350E-05
   (  1,  6, 79)  (  1,  5, 82)  (  1,  3, 84)  (  1,  5, 88)  (  1,  3, 91)
  0  0.2471E-05  0  0.1861E-05  1 -0.1123E-04  0 -0.7466E-05  0 -0.6763E-05
   (  1,  1,100)  (  1,  6, 99)  (  1,  4, 50)  (  1,  1, 51)  (  1,  1, 53)
  0 -0.6827E-05  0 -0.5229E-05  0 -0.5638E-05  0 -0.5117E-05  0 -0.4804E-05
   (  1,  7, 52)  (  1,  7, 54)  (  1,  7, 56)  (  1,  2, 42)  (  1,  3, 40)
  0 -0.4311E-05  0 -0.4322E-05  0 -0.3406E-05  0 -0.2494E-05  0 -0.1452E-05
   (  1,  3, 37)  (  1,  4, 35)  (  1,  4, 32)  (  1,  3, 29)  (  1,  6, 27)
  0 -0.8669E-06  1 -0.2913E-05  0 -0.3962E-05  0 -0.4488E-05  0 -0.3172E-05
   (  1,  7, 79)  (  1,  4, 49)  (  1,  4, 46)  (  1,  7, 44)  (  1,  1, 46)
  0 -0.3085E-05  0 -0.3161E-05  0 -0.3380E-05  0 -0.2909E-05  0 -0.1463E-05
   (  1,  1, 45)  (  1,  1, 42)  (  1,  1, 37)  (  1,  1, 34)  (  1,  2, 33)
  0 -0.1050E-05  0 -0.9760E-06  1  0.1263E-04  0  0.9886E-05  0  0.1077E-04
   (  1,  7, 65)  (  1,  7, 68)  (  1,  4, 50)  (  1,  1, 51)  (  1,  1, 53)
  0  0.1046E-04  0  0.8269E-05  0  0.9413E-05  0  0.8395E-05  0  0.8128E-05
   (  1,  1, 48)  (  1,  1, 46)  (  1,  1, 44)  (  1,  2, 42)  (  1,  2, 39)
  0  0.7191E-05  0  0.6334E-05  0  0.4200E-05  0  0.2401E-05  0  0.1392E-05
   (  1,  3, 37)  (  1,  3, 34)  (  1,  3, 31)  (  1,  3, 28)  (  1,  7, 77)
  0  0.1274E-05  0  0.1655E-05  0  0.1450E-05  0  0.1324E-05  0  0.1380E-05
   (  1,  6, 79)  (  1,  4, 81)  (  1,  2, 83)  (  1,  2, 86)  (  1,  2, 90)
  0  0.1950E-05  0  0.1838E-05  1 -0.1123E-04  0 -0.7449E-05  0 -0.6778E-05
   (  1,  2, 98)  (  1,  1,100)  (  1,  4, 50)  (  1,  1, 51)  (  1,  1, 53)
  0 -0.6855E-05  0 -0.5263E-05  0 -0.5637E-05  0 -0.5172E-05  0 -0.4933E-05
   (  1,  7, 52)  (  1,  7, 54)  (  1,  7, 56)  (  1,  2, 42)  (  1,  3, 40)
  0 -0.4502E-05  0 -0.4500E-05  0 -0.3329E-05  0 -0.2404E-05  0 -0.1347E-05
   (  1,  3, 37)  (  1,  3, 34)  (  1,  3, 31)  (  1,  4, 29)  (  1,  7, 27)
  0 -0.8649E-06  1 -0.2912E-05  0 -0.3805E-05  0 -0.4365E-05  0 -0.3231E-05
   (  1,  7, 80)  (  1,  4, 48)  (  1,  4, 46)  (  1,  7, 44)  (  1,  7, 40)
  0 -0.2908E-05  0 -0.3239E-05  0 -0.3485E-05  0 -0.3037E-05  0 -0.1409E-05
   (  1,  1, 45)  (  1,  1, 41)  (  1,  1, 36)  (  1,  1, 36)  (  1,  1, 32)
  0 -0.1080E-05  0 -0.1040E-05  0 -0.1059E-05  0 -0.1237E-05  0 -0.6995E-06
   (  1,  7, 66)  (  1,  7, 69)  (  1,  6, 71)  (  1,  7, 75)  (  1,  5, 77)
  1  0.1239E-04  0  0.9855E-05  0  0.1076E-04  0  0.1076E-04  0  0.8561E-05
   (  1,  4, 50)  (  1,  1, 51)  (  1,  1, 53)  (  1,  1, 48)  (  1,  1, 46)
  0  0.9920E-05  0  0.8799E-05  0  0.8151E-05  0  0.7046E-05  0  0.6185E-05
   (  1,  1, 44)  (  1,  2, 42)  (  1,  2, 39)  (  1,  2, 36)  (  1,  3, 34)
  0  0.4121E-05  0  0.2391E-05  0  0.1440E-05  0  0.1445E-05  0  0.1808E-05
   (  1,  3, 31)  (  1,  3, 28)  (  1,  7, 77)  (  1,  6, 79)  (  1,  6, 82)
  0  0.1398E-05  0  0.1265E-05  0  0.1519E-05  0  0.2158E-05  0  0.2008E-05
   (  1,  3, 84)  (  1,  3, 87)  (  1,  1,100)  (  1,  6, 99)  (  1,  1,100)
  1 -0.1125E-04  0 -0.7489E-05  0 -0.6845E-05  0 -0.6948E-05  0 -0.5355E-05
   (  1,  4, 50)  (  1,  1, 51)  (  1,  1, 53)  (  1,  7, 52)  (  1,  7, 54)
  0 -0.5720E-05  0 -0.5207E-05  0 -0.4941E-05  0 -0.4526E-05  0 -0.4489E-05
   (  1,  7, 56)  (  1,  2, 42)  (  1,  3, 40)  (  1,  3, 37)  (  1,  3, 34)
  0 -0.3387E-05  0 -0.2446E-05  0 -0.1402E-05  0 -0.8568E-06  1 -0.2846E-05
   (  1,  4, 32)  (  1,  4, 29)  (  1,  6, 27)  (  1,  7, 79)  (  1,  4, 49)
  0 -0.3841E-05  0 -0.4422E-05  0 -0.3086E-05  0 -0.2786E-05  0 -0.3126E-05
   (  1,  4, 46)  (  1,  7, 44)  (  1,  7, 40)  (  1,  1, 45)  (  1,  1, 41)
  0 -0.3449E-05  0 -0.2941E-05  0 -0.1388E-05  0 -0.1046E-05  0 -0.9957E-06
   (  1,  1, 37)  (  1,  1, 36)  (  1,  2, 33)  (  1,  7, 65)  (  1,  7, 68)
  1  0.1263E-04  0  0.9845E-05  0  0.1066E-04  0  0.1040E-04  0  0.8242E-05
   (  1,  4, 50)  (  1,  1, 51)  (  1,  1, 53)  (  1,  1, 48)  (  1,  1, 46)
  0  0.9379E-05  0  0.8340E-05  0  0.8019E-05  0  0.7063E-05  0  0.6213E-05
   (  1,  1, 44)  (  1,  2, 42)  (  1,  2, 39)  (  1,  3, 37)  (  1,  3, 34)
  0  0.4134E-05  0  0.2378E-05  0  0.1378E-05  0  0.1277E-05  0  0.1673E-05
   (  1,  3, 31)  (  1,  3, 28)  (  1,  7, 77)  (  1,  6, 79)  (  1,  4, 81)
  0  0.1446E-05  0  0.1315E-05  0  0.1385E-05  0  0.2034E-05  0  0.1795E-05
   (  1,  2, 83)  (  1,  2, 86)  (  1,  2, 90)  (  1,  1,100)  (  1,  6, 99)
  1 -0.1125E-04  0 -0.7474E-05  0 -0.6778E-05  0 -0.6859E-05  0 -0.5311E-05
   (  1,  4, 50)  (  1,  1, 51)  (  1,  1, 53)  (  1,  7, 52)  (  1,  7, 54)
  0 -0.5708E-05  0 -0.5172E-05  0 -0.4959E-05  0 -0.4566E-05  0 -0.4556E-05
   (  1,  7, 56)  (  1,  2, 42)  (  1,  3, 40)  (  1,  3, 37)  (  1,  3, 34)
  0 -0.3341E-05  0 -0.2413E-05  0 -0.1336E-05  0 -0.8660E-06  1 -0.2953E-05
   (  1,  3, 31)  (  1,  4, 29)  (  1,  7, 27)  (  1,  7, 79)  (  1,  4, 48)
  0 -0.3855E-05  0 -0.4279E-05  0 -0.3086E-05  0 -0.2886E-05  0 -0.3359E-05
   (  1,  4, 46)  (  1,  7, 44)  (  1,  7, 40)  (  1,  1, 45)  (  1,  1, 41)
  0 -0.3500E-05  0 -0.2988E-05  0 -0.1402E-05  0 -0.1014E-05  0 -0.9943E-06
   (  1,  1, 36)  (  1,  1, 36)  (  1,  2, 32)  (  1,  7, 67)  (  1,  7, 69)
  1  0.1264E-04  0  0.9931E-05  0  0.1085E-04  0  0.1051E-04  0  0.8280E-05
   (  1,  4, 50)  (  1,  1, 51)  (  1,  1, 53)  (  1,  1, 48)  (  1,  1, 46)
  0  0.9432E-05  0  0.8399E-05  0  0.8125E-05  0  0.7221E-05  0  0.6390E-05
   (  1,  1, 44)  (  1,  2, 42)  (  1,  2, 39)  (  1,  2, 36)  (  1,  3, 34)
  0  0.4204E-05  0  0.2418E-05  0  0.1425E-05  0  0.1348E-05  0  0.1714E-05
   (  1,  3, 31)  (  1,  3, 28)  (  1,  7, 77)  (  1,  6, 79)  (  1,  3, 81)
  0  0.1382E-05  0  0.1327E-05  0  0.1453E-05  0  0.2035E-05  0  0.1978E-05
   (  1,  2, 84)  (  1,  3, 87)  (  1,  1,100)  (  1,  6, 99)  (  1,  1,100)
  1 -0.1125E-04  0 -0.7491E-05  0 -0.6824E-05  0 -0.6888E-05  0 -0.5309E-05
   (  1,  4, 50)  (  1,  1, 51)  (  1,  1, 53)  (  1,  7, 52)  (  1,  7, 54)
  0 -0.5671E-05  0 -0.5159E-05  0 -0.4949E-05  0 -0.4525E-05  0 -0.4463E-05
   (  1,  7, 56)  (  1,  2, 42)  (  1,  3, 40)  (  1,  3, 37)  (  1,  3, 34)
  0 -0.3371E-05  0 -0.2459E-05  0 -0.1427E-05  0 -0.8864E-06  1 -0.2885E-05
   (  1,  4, 32)  (  1,  4, 29)  (  1,  6, 27)  (  1,  7, 79)  (  1,  4, 49)
  0 -0.3927E-05  0 -0.4441E-05  0 -0.3079E-05  0 -0.2850E-05  0 -0.3157E-05
   (  1,  4, 46)  (  1,  7, 44)  (  1,  7, 40)  (  1,  1, 45)  (  1,  1, 41)
  0 -0.3443E-05  0 -0.2946E-05  0 -0.1440E-05  0 -0.1043E-05  0 -0.1047E-05
   (  1,  1, 37)  (  1,  1, 36)  (  1,  2, 33)  (  1,  7, 65)  (  1,  7, 68)
  0 -0.1033E-05  0 -0.1261E-05  0 -0.7340E-06  1  0.1243E-04  0  0.9865E-05
   (  1,  7, 72)  (  1,  7, 74)  (  1,  6, 77)  (  1,  4, 50)  (  1,  1, 51)
  0  0.1062E-04  0  0.1052E-04  0  0.8456E-05  0  0.9864E-05  0  0.8762E-05
   (  1,  1, 53)  (  1,  1, 48)  (  1,  1, 46)  (  1,  1, 44)  (  1,  2, 42)
  0  0.8166E-05  0  0.7117E-05  0  0.6250E-05  0  0.4136E-05  0  0.2377E-05
   (  1,  2, 39)  (  1,  2, 36)  (  1,  3, 34)  (  1,  3, 31)  (  1,  3, 28)
  0  0.1442E-05  0  0.1422E-05  0  0.1762E-05  0  0.1368E-05  0  0.1231E-05
   (  1,  7, 77)  (  1,  6, 79)  (  1,  3, 81)  (  1,  3, 84)  (  1,  3, 87)
  0  0.1383E-05  0  0.2096E-05  0  0.2013E-05  1 -0.1121E-04  0 -0.7470E-05
   (  1,  1,100)  (  1,  6, 99)  (  1,  1,100)  (  1,  4, 50)  (  1,  1, 51)
  0 -0.6798E-05  0 -0.6865E-05  0 -0.5279E-05  0 -0.5668E-05  0 -0.5163E-05
   (  1,  1, 53)  (  1,  7, 52)  (  1,  7, 54)  (  1,  7, 56)  (  1,  2, 42)
  0 -0.4887E-05  0 -0.4476E-05  0 -0.4462E-05  0 -0.3318E-05  0 -0.2417E-05
   (  1,  3, 40)  (  1,  3, 37)  (  1,  3, 34)  (  1,  4, 32)  (  1,  4, 29)
  0 -0.1376E-05  0 -0.8449E-06  1 -0.2912E-05  0 -0.3850E-05  0 -0.4471E-05
   (  1,  6, 27)  (  1,  7, 79)  (  1,  4, 49)  (  1,  4, 46)  (  1,  7, 44)
  0 -0.3131E-05  0 -0.2795E-05  0 -0.3077E-05  0 -0.3406E-05  0 -0.2948E-05
   (  1,  7, 40)  (  1,  1, 45)  (  1,  1, 41)  (  1,  1, 37)  (  1,  1, 36)
  0 -0.1401E-05  0 -0.1105E-05  0 -0.1088E-05  0 -0.1034E-05  0 -0.1223E-05
   (  1,  2, 33)  (  1,  7, 66)  (  1,  7, 69)  (  1,  7, 72)  (  1,  7, 75)
  0 -0.7195E-06  1  0.1244E-04  0  0.9807E-05  0  0.1050E-04  0  0.1044E-04
   (  1,  6, 77)  (  1,  4, 50)  (  1,  1, 51)  (  1,  1, 53)  (  1,  1, 48)
  0  0.8362E-05  0  0.9679E-05  0  0.8599E-05  0  0.8054E-05  0  0.7032E-05
   (  1,  1, 46)  (  1,  1, 44)  (  1,  2, 42)  (  1,  2, 39)  (  1,  2, 36)
  0  0.6158E-05  0  0.4097E-05  0  0.2343E-05  0  0.1434E-05  0  0.1434E-05
   (  1,  3, 34)  (  1,  3, 31)  (  1,  3, 28)  (  1,  7, 77)  (  1,  6, 79)
  0  0.1783E-05  0  0.1366E-05  0  0.1241E-05  0  0.1450E-05  0  0.2129E-05
   (  1,  3, 81)  (  1,  3, 84)  (  1,  3, 87)  (  1,  1,100)  (  1,  6, 99)
  0  0.2076E-05  1 -0.1125E-04  0 -0.7455E-05  0 -0.6710E-05  0 -0.6685E-05
   (  1,  1,100)  (  1,  4, 50)  (  1,  1, 51)  (  1,  1, 53)  (  1,  7, 52)
  0 -0.5060E-05  0 -0.5351E-05  0 -0.5001E-05  0 -0.4787E-05  0 -0.4393E-05
   (  1,  7, 54)  (  1,  7, 56)  (  1,  2, 42)  (  1,  3, 40)  (  1,  3, 37)
  0 -0.4343E-05  0 -0.3293E-05  0 -0.2389E-05  0 -0.1370E-05  0 -0.8364E-06
   (  1,  4, 35)  (  1,  4, 32)  (  1,  4, 29)  (  1,  6, 27)  (  1,  7, 79)
  1 -0.2895E-05  0 -0.3892E-05  0 -0.4516E-05  0 -0.3280E-05  0 -0.3135E-05
   (  1,  4, 49)  (  1,  4, 46)  (  1,  7, 44)  (  1,  7, 40)  (  1,  1, 45)
  0 -0.3456E-05  0 -0.3586E-05  0 -0.2922E-05  0 -0.1372E-05  0 -0.1044E-05
   (  1,  1, 41)  (  1,  1, 37)  (  1,  1, 33)  (  1,  1, 69)  (  1,  7, 66)
  0 -0.9371E-06  1  0.1260E-04  0  0.9836E-05  0  0.1065E-04  0  0.1041E-04
   (  1,  7, 69)  (  1,  4, 50)  (  1,  1, 51)  (  1,  1, 53)  (  1,  1, 48)
  0  0.8217E-05  0  0.9384E-05  0  0.8396E-05  0  0.8100E-05  0  0.7186E-05
   (  1,  1, 46)  (  1,  1, 44)  (  1,  2, 42)  (  1,  2, 39)  (  1,  3, 37)
  0  0.6342E-05  0  0.4215E-05  0  0.2409E-05  0  0.1415E-05  0  0.1302E-05
   (  1,  3, 34)  (  1,  3, 31)  (  1,  3, 28)  (  1,  7, 77)  (  1,  6, 79)
  0  0.1660E-05  0  0.1392E-05  0  0.1276E-05  0  0.1344E-05  0  0.2074E-05
   (  1,  4, 81)  (  1,  2, 83)  (  1,  2, 86)  (  1,  2, 90)  (  1,  1,100)
  0  0.1796E-05  1 -0.1126E-04  0 -0.7501E-05  0 -0.6828E-05  0 -0.6883E-05
   (  1,  6, 99)  (  1,  4, 50)  (  1,  1, 51)  (  1,  1, 53)  (  1,  7, 52)
  0 -0.5262E-05  0 -0.5621E-05  0 -0.5169E-05  0 -0.4948E-05  0 -0.4554E-05
   (  1,  7, 54)  (  1,  7, 56)  (  1,  2, 42)  (  1,  3, 40)  (  1,  3, 37)
  0 -0.4522E-05  0 -0.3352E-05  0 -0.2403E-05  0 -0.1335E-05  0 -0.8604E-06
   (  1,  3, 34)  (  1,  3, 31)  (  1,  4, 29)  (  1,  7, 27)  (  1,  6, 79)
  1 -0.2859E-05  0 -0.3797E-05  0 -0.4357E-05  0 -0.3119E-05  0 -0.2855E-05
   (  1,  4, 48)  (  1,  4, 46)  (  1,  7, 44)  (  1,  7, 40)  (  1,  1, 45)
  0 -0.3357E-05  0 -0.3530E-05  0 -0.2980E-05  0 -0.1368E-05  0 -0.1039E-05
   (  1,  1, 41)  (  1,  1, 36)  (  1,  1, 36)  (  1,  1, 32)  (  1,  7, 67)
  0 -0.1035E-05  0 -0.1045E-05  0 -0.1172E-05  0 -0.7203E-06  1  0.1248E-04
   (  1,  7, 70)  (  1,  7, 72)  (  1,  7, 75)  (  1,  3, 76)  (  1,  4, 50)
  0  0.9926E-05  0  0.1067E-04  0  0.1051E-04  0  0.8425E-05  0  0.9724E-05
   (  1,  1, 51)  (  1,  1, 53)  (  1,  1, 48)  (  1,  1, 46)  (  1,  1, 44)
  0  0.8599E-05  0  0.8042E-05  0  0.7053E-05  0  0.6239E-05  0  0.4153E-05
   (  1,  2, 42)  (  1,  2, 39)  (  1,  2, 36)  (  1,  3, 34)  (  1,  3, 31)
  0  0.2348E-05  0  0.1416E-05  0  0.1439E-05  0  0.1828E-05  0  0.1401E-05
   (  1,  3, 28)  (  1,  7, 77)  (  1,  6, 79)  (  1,  5, 82)  (  1,  2, 84)
  0  0.1289E-05  0  0.1503E-05  0  0.2222E-05  0  0.2117E-05  1 -0.1122E-04
   (  1,  3, 87)  (  1,  1,100)  (  1,  6, 99)  (  1,  1,100)  (  1,  4, 50)
  0 -0.7427E-05  0 -0.6751E-05  0 -0.6844E-05  0 -0.5290E-05  0 -0.5609E-05
   (  1,  1, 51)  (  1,  1, 53)  (  1,  7, 52)  (  1,  7, 54)  (  1,  7, 56)
  0 -0.5088E-05  0 -0.4841E-05  0 -0.4449E-05  0 -0.4503E-05  0 -0.3505E-05
   (  1,  2, 42)  (  1,  3, 40)  (  1,  3, 37)  (  1,  4, 35)  (  1,  4, 32)
  0 -0.2487E-05  0 -0.1420E-05  0 -0.8510E-06  1 -0.2926E-05  0 -0.3926E-05
   (  1,  3, 29)  (  1,  6, 27)  (  1,  7, 79)  (  1,  4, 49)  (  1,  4, 46)
  0 -0.4342E-05  0 -0.3043E-05  0 -0.2933E-05  0 -0.3255E-05  0 -0.3432E-05
   (  1,  7, 44)  (  1,  7, 39)  (  1,  1, 45)  (  1,  1, 41)  (  1,  1, 37)
  0 -0.3030E-05  0 -0.1383E-05  0 -0.9389E-06  1  0.1262E-04  0  0.1014E-04
   (  1,  1, 36)  (  1,  2, 33)  (  1,  7, 65)  (  1,  4, 50)  (  1,  1, 51)
  0  0.1091E-04  0  0.1052E-04  0  0.8104E-05  0  0.9042E-05  0  0.8259E-05
   (  1,  1, 53)  (  1,  1, 48)  (  1,  1, 46)  (  1,  1, 44)  (  1,  2, 42)
  0  0.8245E-05  0  0.7254E-05  0  0.6163E-05  0  0.4174E-05  0  0.2432E-05
   (  1,  2, 39)  (  1,  2, 36)  (  1,  3, 34)  (  1,  3, 31)  (  1,  3, 28)
  0  0.1342E-05  0  0.1248E-05  0  0.1650E-05  0  0.1474E-05  0  0.1305E-05
   (  1,  7, 76)  (  1,  7, 79)  (  1,  5, 81)  (  1,  2, 83)  (  1,  2, 86)
  0  0.1407E-05  0  0.2046E-05  0  0.1817E-05  1 -0.1125E-04  0 -0.7500E-05
   (  1,  2, 90)  (  1,  7, 99)  (  1,  1,100)  (  1,  4, 50)  (  1,  1, 51)
  0 -0.6796E-05  0 -0.6834E-05  0 -0.5286E-05  0 -0.5695E-05  0 -0.5194E-05
   (  1,  1, 53)  (  1,  7, 52)  (  1,  7, 54)  (  1,  7, 56)  (  1,  2, 42)
  0 -0.4957E-05  0 -0.4572E-05  0 -0.4540E-05  0 -0.3373E-05  0 -0.2425E-05
   (  1,  3, 40)  (  1,  3, 37)  (  1,  3, 34)  (  1,  3, 31)  (  1,  4, 29)
  0 -0.1336E-05  0 -0.8726E-06  1 -0.2897E-05  0 -0.3648E-05  0 -0.4141E-05
   (  1,  7, 27)  (  1,  6, 79)  (  1,  4, 48)  (  1,  4, 46)  (  1,  7, 44)
  0 -0.3037E-05  0 -0.2672E-05  0 -0.3073E-05  0 -0.3376E-05  0 -0.2940E-05
   (  1,  7, 40)  (  1,  1, 43)  (  1,  1, 41)  (  1,  1, 36)  (  1,  1, 34)
  0 -0.1380E-05  0 -0.1014E-05  0 -0.1034E-05  0 -0.1053E-05  0 -0.1259E-05
   (  1,  2, 32)  (  1,  7, 66)  (  1,  6, 68)  (  1,  7, 72)  (  1,  6, 75)
  0 -0.7153E-06  1  0.1248E-04  0  0.9927E-05  0  0.1065E-04  0  0.1054E-04
   (  1,  4, 77)  (  1,  4, 50)  (  1,  1, 51)  (  1,  1, 53)  (  1,  1, 48)
  0  0.8519E-05  0  0.9895E-05  0  0.8709E-05  0  0.8056E-05  0  0.6952E-05
   (  1,  1, 46)  (  1,  1, 44)  (  1,  2, 42)  (  1,  2, 39)  (  1,  2, 36)
  0  0.6062E-05  0  0.4059E-05  0  0.2353E-05  0  0.1441E-05  0  0.1488E-05
   (  1,  3, 34)  (  1,  3, 31)  (  1,  3, 28)  (  1,  7, 77)  (  1,  6, 79)
  0  0.1861E-05  0  0.1402E-05  0  0.1302E-05  0  0.1479E-05  0  0.2245E-05
   (  1,  5, 82)  (  1,  2, 84)  (  1,  5, 88)  (  1,  1,100)  (  1,  6, 99)
  0  0.2124E-05  1 -0.1127E-04  0 -0.7494E-05  0 -0.6830E-05  0 -0.6923E-05
   (  1,  1,100)  (  1,  4, 50)  (  1,  1, 51)  (  1,  1, 53)  (  1,  7, 52)
  0 -0.5314E-05  0 -0.5680E-05  0 -0.5194E-05  0 -0.4851E-05  0 -0.4330E-05
   (  1,  7, 54)  (  1,  7, 56)  (  1,  2, 42)  (  1,  3, 40)  (  1,  3, 37)
  0 -0.4345E-05  0 -0.3485E-05  0 -0.2520E-05  0 -0.1465E-05  0 -0.8812E-06
   (  1,  4, 35)  (  1,  4, 32)  (  1,  3, 29)  (  1,  6, 27)  (  1,  7, 79)
  1 -0.2933E-05  0 -0.4060E-05  0 -0.4513E-05  0 -0.3202E-05  0 -0.3200E-05
   (  1,  4, 49)  (  1,  4, 46)  (  1,  7, 44)  (  1,  7, 39)  (  1,  1, 45)
  0 -0.3408E-05  0 -0.3457E-05  0 -0.2875E-05  0 -0.1442E-05  0 -0.1038E-05
   (  1,  1, 42)  (  1,  1, 37)  (  1,  1, 34)  (  1,  2, 33)  (  1,  7, 66)
  0 -0.9375E-06  1  0.1264E-04  0  0.9925E-05  0  0.1080E-04  0  0.1048E-04
   (  1,  7, 69)  (  1,  4, 50)  (  1,  1, 51)  (  1,  1, 53)  (  1,  1, 48)
  0  0.8293E-05  0  0.9466E-05  0  0.8377E-05  0  0.8092E-05  0  0.7179E-05
   (  1,  1, 46)  (  1,  1, 44)  (  1,  2, 42)  (  1,  2, 39)  (  1,  3, 37)
  0  0.6352E-05  0  0.4230E-05  0  0.2406E-05  0  0.1381E-05  0  0.1261E-05
   (  1,  3, 34)  (  1,  3, 31)  (  1,  3, 28)  (  1,  7, 77)  (  1,  6, 79)
  0  0.1667E-05  0  0.1468E-05  0  0.1324E-05  0  0.1397E-05  0  0.2065E-05
   (  1,  4, 81)  (  1,  2, 83)  (  1,  2, 86)  (  1,  2, 90)  (  1,  1,100)
  0  0.1787E-05  1 -0.1123E-04  0 -0.7488E-05  0 -0.6810E-05  0 -0.6865E-05
   (  1,  6, 99)  (  1,  4, 50)  (  1,  1, 51)  (  1,  1, 53)  (  1,  7, 52)
  0 -0.5216E-05  0 -0.5572E-05  0 -0.5093E-05  0 -0.4915E-05  0 -0.4560E-05
   (  1,  7, 54)  (  1,  7, 56)  (  1,  2, 42)  (  1,  3, 40)  (  1,  3, 37)
  0 -0.4563E-05  0 -0.3372E-05  0 -0.2416E-05  0 -0.1310E-05  0 -0.8437E-06
   (  1,  3, 34)  (  1,  3, 31)  (  1,  4, 29)  (  1,  7, 27)  (  1,  7, 80)
  1 -0.2892E-05  0 -0.3716E-05  0 -0.4525E-05  0 -0.3348E-05  0 -0.3003E-05
   (  1,  4, 48)  (  1,  4, 46)  (  1,  7, 44)  (  1,  7, 40)  (  1,  1, 45)
  0 -0.3305E-05  0 -0.3564E-05  0 -0.3015E-05  0 -0.1372E-05  0 -0.1023E-05
   (  1,  1, 41)  (  1,  1, 36)  (  1,  1, 34)  (  1,  2, 32)  (  1,  7, 66)
  0 -0.1055E-05  0 -0.9757E-06  1  0.1260E-04  0  0.9809E-05  0  0.1055E-04
   (  1,  7, 69)  (  1,  7, 72)  (  1,  4, 50)  (  1,  1, 51)  (  1,  1, 53)
  0  0.1051E-04  0  0.8259E-05  0  0.9486E-05  0  0.8458E-05  0  0.7956E-05
   (  1,  1, 48)  (  1,  1, 46)  (  1,  1, 44)  (  1,  2, 42)  (  1,  2, 39)
  0  0.7162E-05  0  0.6324E-05  0  0.4177E-05  0  0.2381E-05  0  0.1424E-05
   (  1,  3, 37)  (  1,  3, 34)  (  1,  3, 31)  (  1,  3, 28)  (  1,  7, 77)
  0  0.1346E-05  0  0.1733E-05  0  0.1381E-05  0  0.1306E-05  0  0.1358E-05
   (  1,  6, 79)  (  1,  3, 81)  (  1,  3, 84)  (  1,  3, 87)  (  1,  2, 90)
  0  0.2257E-05  0  0.1807E-05  1 -0.1124E-04  0 -0.7504E-05  0 -0.6813E-05
   (  1,  1,100)  (  1,  6, 99)  (  1,  4, 50)  (  1,  1, 51)  (  1,  1, 53)
  0 -0.6828E-05  0 -0.5274E-05  0 -0.5706E-05  0 -0.5225E-05  0 -0.4936E-05
   (  1,  7, 52)  (  1,  7, 54)  (  1,  7, 56)  (  1,  2, 42)  (  1,  3, 40)
  0 -0.4495E-05  0 -0.4462E-05  0 -0.3323E-05  0 -0.2400E-05  0 -0.1363E-05
   (  1,  3, 37)  (  1,  3, 34)  (  1,  3, 31)  (  1,  4, 29)  (  1,  6, 27)
  0 -0.8696E-06  1 -0.2928E-05  0 -0.3873E-05  0 -0.4409E-05  0 -0.3119E-05
   (  1,  7, 79)  (  1,  4, 49)  (  1,  4, 46)  (  1,  7, 44)  (  1,  7, 40)
  0 -0.2847E-05  0 -0.3151E-05  0 -0.3436E-05  0 -0.3051E-05  0 -0.1478E-05
   (  1,  1, 45)  (  1,  1, 41)  (  1,  1, 37)  (  1,  1, 36)  (  1,  2, 33)
  0 -0.1052E-05  0 -0.1017E-05  0 -0.1057E-05  0 -0.1299E-05  0 -0.7295E-06
   (  1,  7, 66)  (  1,  7, 69)  (  1,  7, 72)  (  1,  7, 75)  (  1,  6, 77)
  1  0.1242E-04  0  0.9817E-05  0  0.1051E-04  0  0.1046E-04  0  0.8428E-05
   (  1,  4, 50)  (  1,  1, 51)  (  1,  1, 53)  (  1,  1, 48)  (  1,  1, 46)
  0  0.9794E-05  0  0.8649E-05  0  0.8103E-05  0  0.7057E-05  0  0.6180E-05
   (  1,  1, 44)  (  1,  2, 42)  (  1,  2, 39)  (  1,  2, 36)  (  1,  3, 34)
  0  0.4097E-05  0  0.2367E-05  0  0.1440E-05  0  0.1431E-05  0  0.1770E-05
   (  1,  3, 31)  (  1,  3, 28)  (  1,  7, 77)  (  1,  6, 79)  (  1,  3, 81)
  0  0.1367E-05  0  0.1235E-05  0  0.1271E-05  0  0.2297E-05  0  0.1887E-05
   (  1,  3, 84)  (  1,  3, 87)  (  1,  3, 90)  (  1,  1,100)  (  1,  6, 99)
  1 -0.1120E-04  0 -0.7367E-05  0 -0.6578E-05  0 -0.6617E-05  0 -0.5146E-05
   (  1,  4, 50)  (  1,  1, 51)  (  1,  1, 53)  (  1,  7, 52)  (  1,  7, 54)
  0 -0.5579E-05  0 -0.5128E-05  0 -0.4903E-05  0 -0.4474E-05  0 -0.4438E-05
   (  1,  7, 56)  (  1,  2, 42)  (  1,  3, 40)  (  1,  3, 37)  (  1,  3, 34)
  0 -0.3338E-05  0 -0.2416E-05  0 -0.1383E-05  0 -0.8641E-06  1 -0.2771E-05
   (  1,  4, 32)  (  1,  4, 29)  (  1,  6, 27)  (  1,  7, 79)  (  1,  4, 49)
  0 -0.3808E-05  0 -0.4341E-05  0 -0.3061E-05  0 -0.2877E-05  0 -0.3122E-05
   (  1,  4, 46)  (  1,  7, 44)  (  1,  7, 40)  (  1,  1, 45)  (  1,  1, 41)
  0 -0.3377E-05  0 -0.2897E-05  0 -0.1380E-05  0 -0.1022E-05  0 -0.9635E-06
   (  1,  1, 37)  (  1,  1, 36)  (  1,  2, 33)  (  1,  7, 65)  (  1,  7, 68)
  1  0.1259E-04  0  0.9786E-05  0  0.1060E-04  0  0.1039E-04  0  0.8224E-05
   (  1,  4, 50)  (  1,  1, 51)  (  1,  1, 53)  (  1,  1, 48)  (  1,  1, 46)
  0  0.9387E-05  0  0.8380E-05  0  0.8037E-05  0  0.7065E-05  0  0.6217E-05
   (  1,  1, 44)  (  1,  2, 42)  (  1,  2, 39)  (  1,  2, 36)  (  1,  3, 34)
  0  0.4156E-05  0  0.2371E-05  0  0.1397E-05  0  0.1293E-05  0  0.1671E-05
   (  1,  3, 31)  (  1,  3, 28)  (  1,  7, 77)  (  1,  6, 79)  (  1,  3, 81)
  0  0.1418E-05  0  0.1286E-05  0  0.1365E-05  0  0.1957E-05  0  0.1866E-05
   (  1,  2, 83)  (  1,  2, 86)  (  1,  2, 90)  (  1,  2, 98)  (  1,  1,100)
  1 -0.1125E-04  0 -0.7466E-05  0 -0.6747E-05  0 -0.6790E-05  0 -0.5243E-05
   (  1,  4, 50)  (  1,  1, 51)  (  1,  1, 53)  (  1,  7, 52)  (  1,  7, 54)
  0 -0.5658E-05  0 -0.5195E-05  0 -0.4982E-05  0 -0.4578E-05  0 -0.4561E-05
   (  1,  7, 56)  (  1,  2, 42)  (  1,  3, 40)  (  1,  3, 37)  (  1,  3, 34)
  0 -0.3373E-05  0 -0.2415E-05  0 -0.1329E-05  0 -0.8729E-06  1 -0.2884E-05
   (  1,  3, 31)  (  1,  4, 29)  (  1,  7, 27)  (  1,  7, 80)  (  1,  4, 48)
  0 -0.3669E-05  0 -0.4209E-05  0 -0.3082E-05  0 -0.2745E-05  0 -0.3204E-05
   (  1,  4, 46)  (  1,  7, 44)  (  1,  7, 40)  (  1,  1, 45)  (  1,  1, 41)
  0 -0.3471E-05  0 -0.2947E-05  0 -0.1366E-05  0 -0.9549E-06  1  0.1258E-04
   (  1,  1, 36)  (  1,  1, 36)  (  1,  2, 32)  (  1,  7, 67)  (  1,  4, 50)
  0  0.1006E-04  0  0.1075E-04  0  0.1038E-04  0  0.7990E-05  0  0.8988E-05
   (  1,  1, 51)  (  1,  1, 53)  (  1,  1, 48)  (  1,  1, 46)  (  1,  1, 44)
  0  0.8218E-05  0  0.8195E-05  0  0.7246E-05  0  0.6183E-05  0  0.4201E-05
   (  1,  2, 42)  (  1,  2, 39)  (  1,  2, 36)  (  1,  3, 34)  (  1,  3, 31)
  0  0.2428E-05  0  0.1349E-05  0  0.1286E-05  0  0.1629E-05  0  0.1377E-05
   (  1,  3, 28)  (  1,  7, 76)  (  1,  6, 79)  (  1,  4, 81)  (  1,  2, 83)
  0  0.1260E-05  0  0.1365E-05  0  0.2015E-05  0  0.1866E-05  1 -0.1123E-04
   (  1,  2, 86)  (  1,  2, 90)  (  1,  7, 99)  (  1,  1,100)  (  1,  4, 50)
  0 -0.7500E-05  0 -0.6853E-05  0 -0.6927E-05  0 -0.5281E-05  0 -0.5670E-05
   (  1,  1, 51)  (  1,  1, 53)  (  1,  7, 52)  (  1,  7, 54)  (  1,  7, 56)
  0 -0.5174E-05  0 -0.4923E-05  0 -0.4541E-05  0 -0.4539E-05  0 -0.3351E-05
   (  1,  2, 42)  (  1,  3, 40)  (  1,  3, 37)  (  1,  3, 34)  (  1,  3, 31)
  0 -0.2399E-05  0 -0.1346E-05  0 -0.8604E-06  1 -0.2992E-05  0 -0.3800E-05
   (  1,  4, 29)  (  1,  6, 27)  (  1,  7, 79)  (  1,  4, 49)  (  1,  4, 46)
  0 -0.4199E-05  0 -0.2999E-05  0 -0.2921E-05  0 -0.3123E-05  0 -0.3423E-05
   (  1,  7, 44)  (  1,  7, 40)  (  1,  1, 45)  (  1,  1, 41)  (  1,  1, 37)
  0 -0.3056E-05  0 -0.1392E-05  0 -0.1017E-05  0 -0.1046E-05  0 -0.1059E-05
   (  1,  1, 36)  (  1,  1, 32)  (  1,  7, 67)  (  1,  7, 69)  (  1,  7, 72)
  0 -0.1256E-05  0 -0.7374E-06  1  0.1248E-04  0  0.9937E-05  0  0.1069E-04
   (  1,  7, 75)  (  1,  5, 77)  (  1,  4, 50)  (  1,  1, 51)  (  1,  1, 53)
  0  0.1054E-04  0  0.8499E-05  0  0.9901E-05  0  0.8741E-05  0  0.8119E-05
   (  1,  1, 48)  (  1,  1, 46)  (  1,  1, 44)  (  1,  2, 42)  (  1,  2, 39)
  0  0.6993E-05  0  0.6110E-05  0  0.4108E-05  0  0.2371E-05  0  0.1429E-05
   (  1,  2, 36)  (  1,  3, 34)  (  1,  3, 31)  (  1,  3, 28)  (  1,  7, 77)
  0  0.1431E-05  0  0.1785E-05  0  0.1404E-05  0  0.1244E-05  0  0.1430E-05
   (  1,  6, 79)  (  1,  6, 82)  (  1,  3, 84)  (  1,  3, 87)  (  1,  1,100)
  0  0.2149E-05  0  0.1996E-05  1 -0.1125E-04  0 -0.7507E-05  0 -0.6872E-05
   (  1,  6, 99)  (  1,  1,100)  (  1,  4, 50)  (  1,  1, 51)  (  1,  1, 53)
  0 -0.6962E-05  0 -0.5338E-05  0 -0.5710E-05  0 -0.5222E-05  0 -0.4973E-05
   (  1,  7, 52)  (  1,  7, 54)  (  1,  7, 56)  (  1,  2, 42)  (  1,  3, 40)
  0 -0.4520E-05  0 -0.4489E-05  0 -0.3332E-05  0 -0.2426E-05  0 -0.1372E-05
   (  1,  3, 37)  (  1,  3, 34)  (  1,  4, 32)  (  1,  4, 29)  (  1,  6, 27)
  0 -0.8487E-06  1 -0.2894E-05  0 -0.3873E-05  0 -0.4528E-05  0 -0.3235E-05
   (  1,  7, 79)  (  1,  4, 49)  (  1,  4, 46)  (  1,  7, 44)  (  1,  7, 40)
  0 -0.3015E-05  0 -0.3231E-05  0 -0.3471E-05  0 -0.3001E-05  0 -0.1451E-05
   (  1,  1, 45)  (  1,  1, 41)  (  1,  1, 37)  (  1,  1, 36)  (  1,  1, 32)
  0 -0.1117E-05  0 -0.1083E-05  0 -0.1035E-05  0 -0.1223E-05  0 -0.7130E-06
   (  1,  7, 65)  (  1,  7, 69)  (  1,  7, 72)  (  1,  6, 74)  (  1,  3, 76)
  1  0.1241E-04  0  0.9772E-05  0  0.1049E-04  0  0.1050E-04  0  0.8420E-05
   (  1,  4, 50)  (  1,  1, 51)  (  1,  1, 53)  (  1,  1, 48)  (  1,  1, 46)
  0  0.9702E-05  0  0.8618E-05  0  0.8162E-05  0  0.7162E-05  0  0.6255E-05
   (  1,  1, 44)  (  1,  2, 42)  (  1,  2, 39)  (  1,  2, 36)  (  1,  3, 34)
  0  0.4138E-05  0  0.2371E-05  0  0.1437E-05  0  0.1382E-05  0  0.1716E-05
   (  1,  3, 31)  (  1,  3, 28)  (  1,  7, 77)  (  1,  6, 79)  (  1,  3, 81)
  0  0.1380E-05  0  0.1235E-05  0  0.1308E-05  0  0.2022E-05  0  0.1957E-05
   (  1,  3, 84)  (  1,  3, 87)  (  1,  1,100)  (  1,  6, 99)  (  1,  1,100)
  1 -0.1126E-04  0 -0.7481E-05  0 -0.6778E-05  0 -0.6825E-05  0 -0.5250E-05
   (  1,  4, 50)  (  1,  1, 51)  (  1,  1, 53)  (  1,  7, 52)  (  1,  7, 54)
  0 -0.5587E-05  0 -0.5109E-05  0 -0.4927E-05  0 -0.4583E-05  0 -0.4554E-05
   (  1,  7, 56)  (  1,  2, 42)  (  1,  3, 40)  (  1,  3, 37)  (  1,  3, 34)
  0 -0.3352E-05  0 -0.2408E-05  0 -0.1345E-05  0 -0.8466E-06  1 -0.2911E-05
   (  1,  3, 31)  (  1,  4, 29)  (  1,  6, 27)  (  1,  7, 79)  (  1,  4, 49)
  0 -0.3758E-05  0 -0.4281E-05  0 -0.3064E-05  0 -0.2888E-05  0 -0.3299E-05
   (  1,  4, 46)  (  1,  7, 44)  (  1,  7, 40)  (  1,  1, 45)  (  1,  1, 41)
  0 -0.3554E-05  0 -0.2879E-05  0 -0.1348E-05  0 -0.1018E-05  0 -0.1006E-05
   (  1,  1, 37)  (  1,  1, 33)  (  1,  1, 32)  (  1,  7, 66)  (  1,  7, 69)
  0 -0.9818E-06  1  0.1264E-04  0  0.9843E-05  0  0.1053E-04  0  0.1048E-04
   (  1,  7, 72)  (  1,  4, 50)  (  1,  1, 51)  (  1,  1, 53)  (  1,  1, 48)
  0  0.8400E-05  0  0.9678E-05  0  0.8522E-05  0  0.7976E-05  0  0.7235E-05
   (  1,  1, 46)  (  1,  1, 44)  (  1,  2, 42)  (  1,  2, 39)  (  1,  2, 36)
  0  0.6388E-05  0  0.4156E-05  0  0.2362E-05  0  0.1450E-05  0  0.1355E-05
   (  1,  3, 34)  (  1,  3, 31)  (  1,  3, 28)  (  1,  7, 77)  (  1,  6, 79)
  0  0.1726E-05  0  0.1396E-05  0  0.1304E-05  0  0.1357E-05  0  0.2035E-05
   (  1,  4, 81)  (  1,  3, 84)  (  1,  5, 87)  (  1,  1,100)  (  1,  2, 98)
  0  0.1940E-05  1 -0.1123E-04  0 -0.7493E-05  0 -0.6848E-05  0 -0.6914E-05
   (  1,  1,100)  (  1,  4, 50)  (  1,  1, 51)  (  1,  1, 53)  (  1,  7, 52)
  0 -0.5364E-05  0 -0.5773E-05  0 -0.5243E-05  0 -0.4956E-05  0 -0.4512E-05
   (  1,  7, 54)  (  1,  7, 56)  (  1,  6, 58)  (  1,  3, 40)  (  1,  3, 37)
  0 -0.4506E-05  0 -0.3357E-05  0 -0.2426E-05  0 -0.1375E-05  0 -0.8658E-06
   (  1,  3, 34)  (  1,  4, 32)  (  1,  4, 29)  (  1,  6, 27)  (  1,  7, 79)
  1 -0.2820E-05  0 -0.3807E-05  0 -0.4304E-05  0 -0.3113E-05  0 -0.2746E-05
   (  1,  4, 49)  (  1,  4, 46)  (  1,  7, 44)  (  1,  7, 40)  (  1,  1, 45)
  0 -0.3039E-05  0 -0.3227E-05  0 -0.3039E-05  0 -0.1506E-05  0 -0.1086E-05
   (  1,  1, 41)  (  1,  1, 37)  (  1,  1, 36)  (  1,  2, 33)  (  1,  7, 65)
  0 -0.1018E-05  0 -0.1049E-05  0 -0.1294E-05  0 -0.7582E-06  1  0.1243E-04
   (  1,  7, 69)  (  1,  7, 72)  (  1,  6, 74)  (  1,  5, 77)  (  1,  4, 50)
  0  0.9830E-05  0  0.1067E-04  0  0.1066E-04  0  0.8411E-05  0  0.9653E-05
   (  1,  1, 51)  (  1,  1, 53)  (  1,  1, 48)  (  1,  1, 46)  (  1,  1, 44)
  0  0.8561E-05  0  0.8044E-05  0  0.7007E-05  0  0.6097E-05  0  0.4064E-05
   (  1,  2, 42)  (  1,  2, 39)  (  1,  2, 36)  (  1,  3, 34)  (  1,  3, 31)
  0  0.2347E-05  0  0.1424E-05  0  0.1441E-05  0  0.1806E-05  0  0.1395E-05
   (  1,  3, 28)  (  1,  7, 77)  (  1,  6, 79)  (  1,  6, 82)  (  1,  3, 84)
  0  0.1299E-05  0  0.1548E-05  0  0.2188E-05  0  0.2078E-05  1 -0.1123E-04
   (  1,  3, 87)  (  1,  1,100)  (  1,  6, 99)  (  1,  1,100)  (  1,  4, 50)
  0 -0.7435E-05  0 -0.6741E-05  0 -0.6796E-05  0 -0.5179E-05  0 -0.5470E-05
   (  1,  1, 51)  (  1,  1, 53)  (  1,  7, 52)  (  1,  7, 54)  (  1,  7, 56)
  0 -0.5054E-05  0 -0.4807E-05  0 -0.4370E-05  0 -0.4371E-05  0 -0.3374E-05
   (  1,  2, 42)  (  1,  3, 40)  (  1,  3, 37)  (  1,  4, 35)  (  1,  4, 32)
  0 -0.2434E-05  0 -0.1398E-05  0 -0.8445E-06  1 -0.2832E-05  0 -0.3956E-05
   (  1,  3, 29)  (  1,  6, 27)  (  1,  7, 79)  (  1,  4, 49)  (  1,  4, 46)
  0 -0.4517E-05  0 -0.3252E-05  0 -0.3016E-05  0 -0.3213E-05  0 -0.3388E-05
   (  1,  7, 44)  (  1,  1, 46)  (  1,  1, 45)  (  1,  1, 42)  (  1,  1, 37)
  0 -0.2940E-05  0 -0.1419E-05  0 -0.1025E-05  0 -0.9057E-06  1  0.1261E-04
   (  1,  1, 34)  (  1,  2, 33)  (  1,  7, 65)  (  1,  7, 69)  (  1,  4, 50)
  0  0.9882E-05  0  0.1080E-04  0  0.1046E-04  0  0.8116E-05  0  0.9160E-05
   (  1,  1, 51)  (  1,  1, 53)  (  1,  1, 48)  (  1,  1, 46)  (  1,  1, 44)
  0  0.8227E-05  0  0.8035E-05  0  0.7094E-05  0  0.6211E-05  0  0.4161E-05
   (  1,  2, 42)  (  1,  2, 39)  (  1,  3, 37)  (  1,  3, 34)  (  1,  3, 31)
  0  0.2382E-05  0  0.1365E-05  0  0.1246E-05  0  0.1637E-05  0  0.1443E-05
   (  1,  3, 28)  (  1,  7, 77)  (  1,  6, 79)  (  1,  4, 81)  (  1,  2, 83)
  0  0.1328E-05  0  0.1412E-05  0  0.2051E-05  0  0.1769E-05  1 -0.1124E-04
   (  1,  2, 86)  (  1,  2, 90)  (  1,  1,100)  (  1,  6, 99)  (  1,  4, 50)
  0 -0.7491E-05  0 -0.6790E-05  0 -0.6801E-05  0 -0.5196E-05  0 -0.5544E-05
   (  1,  1, 51)  (  1,  1, 53)  (  1,  7, 52)  (  1,  7, 54)  (  1,  7, 56)
  0 -0.5127E-05  0 -0.4933E-05  0 -0.4562E-05  0 -0.4526E-05  0 -0.3359E-05
   (  1,  2, 42)  (  1,  3, 40)  (  1,  3, 37)  (  1,  3, 34)  (  1,  3, 31)
  0 -0.2403E-05  0 -0.1305E-05  0 -0.8605E-06  1 -0.2971E-05  0 -0.3616E-05
   (  1,  4, 29)  (  1,  7, 27)  (  1,  6, 79)  (  1,  4, 48)  (  1,  4, 46)
  0 -0.4207E-05  0 -0.3147E-05  0 -0.2730E-05  0 -0.3149E-05  0 -0.3436E-05
   (  1,  7, 44)  (  1,  7, 40)  (  1,  1, 43)  (  1,  1, 41)  (  1,  1, 36)
  0 -0.3009E-05  0 -0.1378E-05  0 -0.9817E-06  1  0.1261E-04  0  0.1009E-04
   (  1,  1, 34)  (  1,  2, 32)  (  1,  7, 66)  (  1,  4, 50)  (  1,  1, 51)
  0  0.1076E-04  0  0.1039E-04  0  0.8060E-05  0  0.9001E-05  0  0.8186E-05
   (  1,  1, 53)  (  1,  1, 48)  (  1,  1, 46)  (  1,  1, 44)  (  1,  2, 42)
  0  0.8169E-05  0  0.7253E-05  0  0.6185E-05  0  0.4201E-05  0  0.2417E-05
   (  1,  2, 39)  (  1,  4, 37)  (  1,  3, 34)  (  1,  3, 31)  (  1,  3, 28)
  0  0.1339E-05  0  0.1256E-05  0  0.1627E-05  0  0.1427E-05  0  0.1284E-05
   (  1,  7, 76)  (  1,  6, 79)  (  1,  5, 81)  (  1,  2, 83)  (  1,  2, 86)
  0  0.1389E-05  0  0.2086E-05  0  0.1783E-05  1 -0.1128E-04  0 -0.7515E-05
   (  1,  2, 90)  (  1,  1,100)  (  1,  6, 99)  (  1,  4, 50)  (  1,  1, 51)
  0 -0.6820E-05  0 -0.6850E-05  0 -0.5338E-05  0 -0.5739E-05  0 -0.5232E-05
   (  1,  1, 53)  (  1,  7, 52)  (  1,  7, 54)  (  1,  7, 56)  (  1,  6, 58)
  0 -0.4981E-05  0 -0.4595E-05  0 -0.4601E-05  0 -0.3409E-05  0 -0.2426E-05
   (  1,  3, 40)  (  1,  3, 37)  (  1,  3, 34)  (  1,  3, 31)  (  1,  4, 29)
  0 -0.1329E-05  0 -0.8897E-06  1 -0.2836E-05  0 -0.3639E-05  0 -0.4218E-05
   (  1,  7, 27)  (  1,  7, 80)  (  1,  4, 48)  (  1,  4, 46)  (  1,  7, 44)
  0 -0.3231E-05  0 -0.2786E-05  0 -0.3159E-05  0 -0.3300E-05  0 -0.2983E-05
   (  1,  7, 40)  (  1,  1, 43)  (  1,  1, 41)  (  1,  1, 36)  (  1,  1, 34)
  0 -0.1471E-05  0 -0.1062E-05  0 -0.1030E-05  0 -0.1025E-05  0 -0.1205E-05
   (  1,  2, 32)  (  1,  7, 66)  (  1,  7, 69)  (  1,  7, 72)  (  1,  6, 75)
  0 -0.7064E-06  1  0.1245E-04  0  0.9899E-05  0  0.1066E-04  0  0.1059E-04
   (  1,  4, 77)  (  1,  4, 50)  (  1,  1, 51)  (  1,  1, 53)  (  1,  1, 48)
  0  0.8507E-05  0  0.9808E-05  0  0.8651E-05  0  0.8084E-05  0  0.7070E-05
   (  1,  1, 46)  (  1,  1, 44)  (  1,  2, 42)  (  1,  2, 39)  (  1,  2, 36)
  0  0.6201E-05  0  0.4119E-05  0  0.2348E-05  0  0.1429E-05  0  0.1432E-05
   (  1,  3, 34)  (  1,  3, 31)  (  1,  3, 28)  (  1,  7, 77)  (  1,  6, 79)
  0  0.1793E-05  0  0.1399E-05  0  0.1260E-05  0  0.1306E-05  0  0.2332E-05
   (  1,  3, 81)  (  1,  3, 84)  (  1,  3, 87)  (  1,  2, 90)  (  1,  1,100)
  0  0.1900E-05
   (  1,  6, 99)

 MAXIMUM RESIDUAL FOR EACH ITERATION (1 INDICATES THE FIRST INNER ITERATION):

    RESIDUAL       RESIDUAL       RESIDUAL       RESIDUAL       RESIDUAL    
   LAYER,ROW,COL  LAYER,ROW,COL  LAYER,ROW,COL  LAYER,ROW,COL  LAYER,ROW,COL
 ---------------------------------------------------------------------------
  1 -0.6689E-03  0 -0.6630E-03  0  0.1161E-02  0 -0.9230E-03  0 -0.1029E-02
   (  1,  3, 18)  (  1,  2, 70)  (  1,  1, 21)  (  1,  3, 18)  (  1,  1, 21)
  0  0.9319E-03  0 -0.9724E-03  0 -0.7711E-03  0 -0.1184E-02  0 -0.7043E-03
   (  1,  7, 20)  (  1,  2, 20)  (  1,  7, 20)  (  1,  7, 19)  (  1,  1, 21)
  0  0.6266E-03  0  0.7533E-03  0  0.7123E-03  0 -0.5245E-03  0 -0.3030E-03
   (  1,  7, 19)  (  1,  7, 19)  (  1,  1, 22)  (  1,  7, 19)  (  1,  1, 20)
  0 -0.1761E-03  0 -0.2734E-03  0 -0.1627E-03  0  0.8765E-04  0  0.1276E-03
   (  1,  1, 23)  (  1,  2, 21)  (  1,  2, 21)  (  1,  2, 17)  (  1,  2, 21)
  1  0.2083E-02  0  0.2198E-02  0  0.2212E-02  0 -0.1863E-02  0 -0.1626E-02
   (  1,  3, 19)  (  1,  2, 20)  (  1,  6, 20)  (  1,  1, 19)  (  1,  1, 20)
  0 -0.3009E-02  0  0.1777E-02  0  0.1600E-02  0  0.2161E-02  0 -0.1168E-02
   (  1,  2, 18)  (  1,  1, 20)  (  1,  2, 18)  (  1,  2, 19)  (  1,  1, 21)
  0 -0.1616E-02  0 -0.1826E-02  0 -0.1123E-02  0  0.6188E-03  0  0.5479E-03
   (  1,  2, 19)  (  1,  2, 20)  (  1,  2, 21)  (  1,  6, 19)  (  1,  6, 19)
  0 -0.3543E-03  0 -0.2215E-03  0 -0.1774E-03  0  0.1036E-03  0  0.1186E-03
   (  1,  1, 22)  (  1,  6, 19)  (  1,  2, 21)  (  1,  6, 19)  (  1,  2, 21)
  1  0.4034E-02  0  0.3360E-02  0  0.1460E-02  0 -0.2988E-02  0 -0.1917E-02
   (  1,  4, 67)  (  1,  4, 64)  (  1,  1, 66)  (  1,  4, 64)  (  1,  4, 61)
  0  0.1555E-02  0  0.2077E-02  0 -0.8724E-03  0 -0.1233E-02  0 -0.1287E-02
   (  1,  4, 66)  (  1,  4, 60)  (  1,  3, 59)  (  1,  4, 62)  (  1,  4, 60)
  0  0.7636E-03  0  0.1208E-02  0  0.8086E-03  0 -0.3509E-03  0 -0.2345E-03
   (  1,  3, 18)  (  1,  4, 64)  (  1,  4, 61)  (  1,  1, 49)  (  1,  4, 60)
  0  0.1233E-03  0  0.4772E-04  0  0.2847E-04  0 -0.4782E-04  0 -0.2207E-04
   (  1,  3, 59)  (  1,  5, 68)  (  1,  4, 60)  (  1,  5, 67)  (  1,  5, 69)
  1  0.4183E-02  0  0.3589E-02  0  0.1663E-02  0 -0.3140E-02  0  0.1738E-02
   (  1,  4, 63)  (  1,  4, 60)  (  1,  1, 62)  (  1,  4, 57)  (  1,  1, 71)
  0  0.1446E-02  0  0.2098E-02  0  0.1053E-02  0 -0.1641E-02  0 -0.1318E-02
   (  1,  4, 62)  (  1,  4, 60)  (  1,  1, 65)  (  1,  4, 62)  (  1,  4, 60)
  0 -0.4992E-03  0  0.1109E-02  0  0.5764E-03  0 -0.3119E-03  0 -0.3739E-03
   (  1,  3, 62)  (  1,  4, 58)  (  1,  4, 56)  (  1,  1, 44)  (  1,  4, 56)
  0  0.2645E-03  0  0.1463E-03  0  0.1637E-03  0 -0.1012E-03  0 -0.8081E-04
   (  1,  3, 55)  (  1,  4, 62)  (  1,  4, 60)  (  1,  5, 64)  (  1,  4, 58)
  1  0.3828E-02  0  0.3632E-02  0  0.1486E-02  0 -0.3031E-02  0  0.1671E-02
   (  1,  4, 59)  (  1,  4, 57)  (  1,  1, 58)  (  1,  4, 54)  (  1,  1, 67)
  0 -0.1411E-02  0  0.2227E-02  0 -0.7679E-03  0 -0.1304E-02  0 -0.1330E-02
   (  1,  1, 62)  (  1,  4, 58)  (  1,  1, 66)  (  1,  4, 56)  (  1,  4, 54)
  0  0.5284E-03  0  0.6150E-03  0 -0.4218E-03  0 -0.2147E-03  0 -0.4524E-03
   (  1,  3, 52)  (  1,  4, 58)  (  1,  3, 53)  (  1,  1, 42)  (  1,  4, 57)
  0  0.3348E-03  0 -0.1268E-03  0  0.1045E-03  0 -0.8763E-04  0 -0.9530E-04
   (  1,  5, 61)  (  1,  1, 87)  (  1,  4, 54)  (  1,  5, 61)  (  1,  4, 56)
  1  0.2712E-02  0  0.3178E-02  0  0.1275E-02  0 -0.2375E-02  0 -0.1443E-02
   (  1,  4, 56)  (  1,  4, 54)  (  1,  1, 56)  (  1,  4, 56)  (  1,  4, 51)
  0 -0.1211E-02  0  0.1875E-02  0 -0.6437E-03  0 -0.1100E-02  0 -0.1063E-02
   (  1,  1, 59)  (  1,  4, 55)  (  1,  1, 63)  (  1,  4, 54)  (  1,  4, 52)
  0 -0.4133E-03  0  0.3871E-03  0 -0.2963E-03  0 -0.1446E-03  0 -0.3126E-03
   (  1,  1, 59)  (  1,  4, 54)  (  1,  3, 50)  (  1,  1, 52)  (  1,  4, 52)
  0  0.2380E-03  0  0.1256E-03  0 -0.2039E-03  0 -0.9085E-04  0 -0.7589E-04
   (  1,  5, 58)  (  1,  4, 54)  (  1,  3, 50)  (  1,  5, 57)  (  1,  2, 22)
  1  0.1987E-02  0  0.2459E-02  0  0.9979E-03  0 -0.1845E-02  0 -0.1230E-02
   (  1,  4, 54)  (  1,  4, 52)  (  1,  1, 53)  (  1,  4, 54)  (  1,  4, 52)
  0 -0.8636E-03  0  0.1544E-02  0  0.5138E-03  0 -0.7400E-03  0 -0.7028E-03
   (  1,  1, 56)  (  1,  4, 53)  (  1,  4, 49)  (  1,  4, 51)  (  1,  4, 50)
  0  0.3651E-03  0  0.2630E-03  0  0.2374E-03  0  0.1451E-03  0 -0.2346E-03
   (  1,  3, 48)  (  1,  4, 53)  (  1,  4, 51)  (  1,  3, 55)  (  1,  4, 50)
  0  0.1672E-03  0  0.1253E-03  0 -0.2271E-03  0 -0.1172E-03  0  0.6158E-04
   (  1,  5, 55)  (  1,  4, 51)  (  1,  3, 48)  (  1,  5, 55)  (  1,  3, 49)
  1  0.1150E-02  0  0.1647E-02  0  0.7268E-03  0 -0.1261E-02  0 -0.1009E-02
   (  1,  4, 53)  (  1,  4, 49)  (  1,  4, 47)  (  1,  4, 52)  (  1,  4, 50)
  0  0.6762E-03  0  0.1094E-02  0  0.4809E-03  0 -0.5016E-03  0 -0.4750E-03
   (  1,  4, 53)  (  1,  4, 52)  (  1,  4, 47)  (  1,  4, 50)  (  1,  4, 51)
  0  0.2041E-03  0  0.1684E-03  0 -0.1799E-03  0 -0.1073E-03  0 -0.1244E-03
   (  1,  5, 53)  (  1,  4, 52)  (  1,  3, 47)  (  1,  5, 53)  (  1,  4, 51)
  0  0.1437E-03  0 -0.9553E-04  0 -0.1602E-03  0 -0.1094E-03  0 -0.4334E-04
   (  1,  5, 53)  (  1,  4, 21)  (  1,  3, 47)  (  1,  5, 53)  (  1,  4, 51)
  1  0.7822E-03  0  0.1199E-02  0  0.5384E-03  0 -0.8715E-03  0 -0.7250E-03
   (  1,  4, 51)  (  1,  4, 50)  (  1,  4, 46)  (  1,  4, 47)  (  1,  4, 46)
  0 -0.3988E-03  0  0.7769E-03  0  0.3390E-03  0 -0.3194E-03  0 -0.2995E-03
   (  1,  1, 54)  (  1,  4, 50)  (  1,  4, 46)  (  1,  4, 49)  (  1,  4, 48)
  0  0.1763E-03  0  0.1142E-03  0 -0.1669E-03  0 -0.9277E-04  0 -0.7471E-04
   (  1,  3, 46)  (  1,  4, 50)  (  1,  3, 46)  (  1,  5, 52)  (  1,  4, 50)
  0  0.1255E-03  0  0.9385E-04  0 -0.1234E-03  0 -0.7615E-04  0  0.4342E-04
   (  1,  3, 46)  (  1,  2, 22)  (  1,  3, 46)  (  1,  3, 46)  (  1,  2, 22)
  1  0.6153E-03  0  0.8526E-03  0  0.3488E-03  0 -0.5767E-03  0 -0.4719E-03
   (  1,  4, 51)  (  1,  4, 49)  (  1,  1, 50)  (  1,  4, 46)  (  1,  4, 45)
  0  0.2767E-03  0  0.5119E-03  0  0.2497E-03  0 -0.2093E-03  0 -0.1792E-03
   (  1,  4, 51)  (  1,  4, 50)  (  1,  4, 45)  (  1,  4, 48)  (  1,  4, 47)
  0  0.9673E-04  0  0.7830E-04  0 -0.1078E-03  0 -0.6849E-04  0 -0.5549E-04
   (  1,  3, 45)  (  1,  4, 50)  (  1,  3, 45)  (  1,  3, 45)  (  1,  2, 22)
  0  0.8681E-04  0  0.4571E-04  0 -0.7985E-04  0 -0.5027E-04  0  0.2700E-04
   (  1,  3, 45)  (  1,  2, 22)  (  1,  3, 45)  (  1,  5, 51)  (  1,  2, 22)
  1  0.3306E-03  0  0.5589E-03  0  0.2640E-03  0 -0.3854E-03  0 -0.3762E-03
   (  1,  4, 50)  (  1,  4, 48)  (  1,  4, 45)  (  1,  4, 46)  (  1,  4, 47)
  0 -0.1605E-03  0  0.3523E-03  0  0.1946E-03  0 -0.1025E-03  0 -0.1254E-03
   (  1,  1, 53)  (  1,  4, 46)  (  1,  4, 45)  (  1,  4, 50)  (  1,  4, 47)
  0  0.8356E-04  0  0.5447E-04  0  0.7438E-04  0 -0.4791E-04  0 -0.3552E-04
   (  1,  3, 45)  (  1,  4, 49)  (  1,  4, 45)  (  1,  3, 45)  (  1,  4, 49)
  0  0.6877E-04  0  0.3456E-04  0 -0.4530E-04  0 -0.3851E-04  0  0.2219E-04
   (  1,  3, 45)  (  1,  3, 22)  (  1,  3, 45)  (  1,  3, 45)  (  1,  2, 22)
  1  0.2142E-03  0  0.3571E-03  0  0.1598E-03  0 -0.2339E-03  0 -0.2369E-03
   (  1,  4, 50)  (  1,  4, 48)  (  1,  4, 45)  (  1,  4, 46)  (  1,  4, 47)
  0 -0.9687E-04  0  0.2296E-03  0  0.9870E-04  0 -0.7074E-04  0 -0.6863E-04
   (  1,  1, 53)  (  1,  4, 46)  (  1,  4, 45)  (  1,  4, 50)  (  1,  4, 48)
  0  0.3992E-04  0  0.3788E-04  0 -0.4281E-04  0 -0.3001E-04  0 -0.2225E-04
   (  1,  3, 45)  (  1,  4, 46)  (  1,  3, 45)  (  1,  5, 50)  (  1,  2, 22)
  0  0.3785E-04  0  0.1804E-04  0 -0.2676E-04  0 -0.2376E-04  0  0.1149E-04
   (  1,  3, 45)  (  1,  1, 46)  (  1,  2, 51)  (  1,  5, 50)  (  1,  2, 22)
  1  0.1587E-03  0  0.2254E-03  0  0.9224E-04  0 -0.1635E-03  0 -0.1368E-03
   (  1,  4, 50)  (  1,  4, 47)  (  1,  1, 49)  (  1,  4, 45)  (  1,  4, 44)
  0  0.7956E-04  0  0.1426E-03  0  0.6355E-04  0 -0.4772E-04  0 -0.4764E-04
   (  1,  4, 50)  (  1,  4, 49)  (  1,  4, 44)  (  1,  4, 47)  (  1,  4, 46)
  0  0.3072E-04  0  0.2633E-04  0 -0.3205E-04  0 -0.1711E-04  0 -0.1786E-04
   (  1,  3, 44)  (  1,  4, 46)  (  1,  3, 44)  (  1,  5, 50)  (  1,  4, 48)
  0  0.2623E-04  0  0.9966E-05  0 -0.1692E-04  0 -0.1336E-04  0 -0.7616E-05
   (  1,  3, 44)  (  1,  4, 43)  (  1,  3, 44)  (  1,  3, 44)  (  1,  4, 43)
  1  0.1114E-03  0  0.1543E-03  0  0.6453E-04  0 -0.1187E-03  0 -0.1001E-03
   (  1,  4, 50)  (  1,  4, 47)  (  1,  4, 44)  (  1,  4, 45)  (  1,  4, 44)
  0  0.4631E-04  0  0.9620E-04  0  0.5345E-04  0 -0.2989E-04  0 -0.3339E-04
   (  1,  4, 50)  (  1,  4, 49)  (  1,  4, 44)  (  1,  4, 47)  (  1,  4, 46)
  0  0.2056E-04  0  0.1740E-04  0  0.2074E-04  0 -0.1234E-04  0 -0.1373E-04
   (  1,  3, 44)  (  1,  4, 47)  (  1,  4, 44)  (  1,  3, 44)  (  1,  4, 46)
  0  0.1961E-04  0  0.6997E-05  0 -0.1191E-04  0 -0.9412E-05  0  0.6947E-05
   (  1,  3, 44)  (  1,  4, 43)  (  1,  3, 44)  (  1,  5, 50)  (  1,  2, 22)
  1  0.8281E-04  0  0.1077E-03  0  0.4530E-04  0 -0.7819E-04  0 -0.7041E-04
   (  1,  4, 50)  (  1,  4, 47)  (  1,  4, 44)  (  1,  4, 45)  (  1,  4, 44)
  0  0.3497E-04  0  0.6695E-04  0  0.3322E-04  0 -0.2123E-04  0 -0.2284E-04
   (  1,  4, 50)  (  1,  4, 49)  (  1,  4, 44)  (  1,  4, 47)  (  1,  4, 46)
  0  0.1509E-04  0  0.1148E-04  0 -0.1538E-04  0 -0.8403E-05  0 -0.8534E-05
   (  1,  3, 44)  (  1,  4, 45)  (  1,  3, 44)  (  1,  3, 44)  (  1,  4, 48)
  0  0.1276E-04  0  0.5160E-05  0 -0.7931E-05  0 -0.6892E-05  0 -0.3905E-05
   (  1,  3, 44)  (  1,  4, 43)  (  1,  3, 44)  (  1,  5, 50)  (  1,  4, 43)
  1  0.5902E-04  0  0.7371E-04  0  0.3114E-04  0 -0.5645E-04  0 -0.4828E-04
   (  1,  4, 50)  (  1,  4, 47)  (  1,  4, 44)  (  1,  4, 45)  (  1,  4, 44)
  0  0.2364E-04  0  0.4626E-04  0  0.2482E-04  0 -0.1459E-04  0 -0.1632E-04
   (  1,  4, 50)  (  1,  4, 49)  (  1,  4, 44)  (  1,  4, 47)  (  1,  4, 46)
  0  0.1011E-04  0  0.8106E-05  0  0.9654E-05  0 -0.6036E-05  0 -0.6344E-05
   (  1,  3, 44)  (  1,  4, 49)  (  1,  4, 44)  (  1,  3, 44)  (  1,  4, 46)
  0  0.9154E-05  0 -0.3504E-05  0 -0.5717E-05  0  0.5004E-05  0  0.3211E-05
   (  1,  3, 44)  (  1,  3, 23)  (  1,  3, 44)  (  1,  3, 51)  (  1,  2, 22)
  1  0.3788E-04  0  0.5862E-04  0  0.2850E-04  0 -0.3765E-04  0 -0.3966E-04
   (  1,  4, 50)  (  1,  4, 47)  (  1,  4, 44)  (  1,  4, 50)  (  1,  4, 44)
  0 -0.1969E-04  0  0.3161E-04  0  0.1583E-04  0 -0.9250E-05  0 -0.1013E-04
   (  1,  1, 52)  (  1,  4, 45)  (  1,  4, 44)  (  1,  4, 47)  (  1,  4, 45)
  0  0.7575E-05  0  0.5557E-05  0 -0.8043E-05  0 -0.4332E-05  0 -0.4470E-05
   (  1,  3, 44)  (  1,  4, 45)  (  1,  3, 44)  (  1,  5, 50)  (  1,  4, 48)
  0  0.6454E-05  0  0.2664E-05  0 -0.3783E-05  0  0.2920E-05  0  0.2322E-05
   (  1,  3, 44)  (  1,  4, 43)  (  1,  3, 44)  (  1,  3, 51)  (  1,  2, 22)
  1  0.2724E-04  0  0.4341E-04  0  0.2171E-04  0 -0.2735E-04  0 -0.3029E-04
   (  1,  4, 50)  (  1,  4, 47)  (  1,  4, 44)  (  1,  4, 50)  (  1,  4, 44)
  0 -0.1417E-04  0  0.2318E-04  0  0.1226E-04  0 -0.7104E-05  0 -0.7412E-05
   (  1,  1, 52)  (  1,  4, 45)  (  1,  4, 44)  (  1,  4, 47)  (  1,  4, 45)
  0  0.5683E-05  0  0.4248E-05  0 -0.5461E-05  0 -0.3640E-05  0 -0.3330E-05
   (  1,  3, 44)  (  1,  4, 46)  (  1,  3, 44)  (  1,  3, 44)  (  1,  2, 22)
  0  0.4693E-05  0  0.2038E-05  0 -0.2626E-05  0 -0.2218E-05  0 -0.1440E-05
   (  1,  3, 44)  (  1,  4, 43)  (  1,  3, 44)  (  1,  5, 50)  (  1,  4, 43)
  1  0.2004E-04  0  0.3243E-04  0  0.1581E-04  0 -0.2074E-04  0 -0.2221E-04
   (  1,  4, 50)  (  1,  4, 47)  (  1,  4, 44)  (  1,  4, 45)  (  1,  4, 44)
  0 -0.1020E-04  0  0.1711E-04  0  0.8243E-05  0 -0.5548E-05  0 -0.5448E-05
   (  1,  1, 52)  (  1,  4, 45)  (  1,  4, 44)  (  1,  4, 47)  (  1,  4, 46)
  0  0.4082E-05  0  0.3373E-05  0 -0.4173E-05  0 -0.2422E-05  0 -0.2231E-05
   (  1,  3, 44)  (  1,  4, 46)  (  1,  3, 44)  (  1,  3, 44)  (  1,  2, 22)
  0  0.3440E-05  0  0.1483E-05  0 -0.2047E-05  0 -0.1579E-05  0 -0.9867E-06
   (  1,  3, 44)  (  1,  4, 43)  (  1,  3, 44)  (  1,  5, 50)  (  1,  4, 43)
  1  0.1482E-04  0  0.2387E-04  0  0.1176E-04  0 -0.1538E-04  0 -0.1663E-04
   (  1,  4, 50)  (  1,  4, 47)  (  1,  4, 44)  (  1,  4, 45)  (  1,  4, 44)
  0 -0.7410E-05  0  0.1278E-04  0  0.6114E-05  0 -0.4195E-05  0 -0.4074E-05
   (  1,  1, 52)  (  1,  4, 45)  (  1,  4, 44)  (  1,  4, 47)  (  1,  4, 48)
  0  0.2942E-05  0  0.2517E-05  0 -0.2970E-05  0 -0.1825E-05  0 -0.1655E-05
   (  1,  3, 44)  (  1,  4, 46)  (  1,  3, 44)  (  1,  3, 44)  (  1,  4, 48)
  0  0.2558E-05  0  0.1102E-05  0 -0.1487E-05  0  0.1194E-05  0 -0.7571E-06
   (  1,  3, 44)  (  1,  4, 43)  (  1,  3, 44)  (  1,  3, 51)  (  1,  4, 43)
  1  0.1076E-04  0  0.1770E-04  0  0.8605E-05  0 -0.1126E-04  0 -0.1233E-04
   (  1,  4, 50)  (  1,  4, 47)  (  1,  4, 44)  (  1,  4, 49)  (  1,  4, 44)
  0 -0.5622E-05  0  0.9475E-05  0  0.4590E-05  0 -0.2940E-05  0 -0.2993E-05
   (  1,  1, 52)  (  1,  4, 45)  (  1,  4, 44)  (  1,  4, 47)  (  1,  4, 46)
  0  0.2169E-05  0  0.1771E-05  0 -0.2324E-05  0 -0.1342E-05  0 -0.1264E-05
   (  1,  3, 44)  (  1,  4, 46)  (  1,  3, 44)  (  1,  3, 44)  (  1,  4, 48)
  0  0.1872E-05  0  0.7673E-06  0 -0.1106E-05  0  0.8642E-06  0  0.5935E-06
   (  1,  3, 44)  (  1,  4, 43)  (  1,  3, 44)  (  1,  3, 51)  (  1,  2, 22)
  1  0.8007E-05  0  0.1304E-04  0  0.6417E-05  0 -0.8230E-05  0 -0.9070E-05
   (  1,  4, 50)  (  1,  4, 47)  (  1,  4, 44)  (  1,  4, 45)  (  1,  4, 44)
  0 -0.4190E-05  0  0.6928E-05  0  0.3570E-05  0 -0.2131E-05  0 -0.2139E-05
   (  1,  1, 52)  (  1,  4, 45)  (  1,  4, 44)  (  1,  4, 47)  (  1,  4, 48)
  0  0.1674E-05  0  0.1218E-05  0 -0.1627E-05  0 -0.1045E-05  0 -0.9154E-06
   (  1,  3, 44)  (  1,  4, 46)  (  1,  3, 44)  (  1,  3, 44)  (  1,  2, 22)
  0  0.1409E-05  0  0.5905E-06  0 -0.8139E-06  0  0.6661E-06  0 -0.4212E-06
   (  1,  3, 44)  (  1,  4, 43)  (  1,  3, 44)  (  1,  3, 51)  (  1,  4, 43)
  1  0.5833E-05  0  0.9672E-05  0  0.4690E-05  0 -0.6111E-05  0 -0.6688E-05
   (  1,  4, 50)  (  1,  4, 47)  (  1,  4, 44)  (  1,  4, 49)  (  1,  4, 44)
  0 -0.3118E-05  0  0.5171E-05  0  0.2557E-05  0 -0.1533E-05  0 -0.1626E-05
   (  1,  1, 52)  (  1,  4, 45)  (  1,  4, 44)  (  1,  4, 47)  (  1,  4, 45)
  0  0.1204E-05  0  0.9411E-06  0 -0.1239E-05  0 -0.7690E-06  0 -0.6870E-06
   (  1,  3, 44)  (  1,  4, 45)  (  1,  3, 44)  (  1,  3, 44)  (  1,  2, 22)
  0  0.1026E-05  0  0.4219E-06  0 -0.5803E-06  0 -0.4828E-06  0 -0.3184E-06
   (  1,  3, 44)  (  1,  4, 43)  (  1,  3, 44)  (  1,  5, 50)  (  1,  4, 43)
  1  0.4358E-05  0  0.7127E-05  0  0.3498E-05  0 -0.4455E-05  0 -0.4924E-05
   (  1,  4, 50)  (  1,  4, 47)  (  1,  4, 44)  (  1,  4, 45)  (  1,  4, 44)
  0 -0.2305E-05  0  0.3791E-05  0  0.1956E-05  0 -0.1150E-05  0 -0.1183E-05
   (  1,  1, 52)  (  1,  4, 45)  (  1,  4, 44)  (  1,  4, 47)  (  1,  4, 45)
  0  0.8975E-06  0  0.6705E-06  0 -0.8861E-06  0 -0.5693E-06  0 -0.4947E-06
   (  1,  3, 44)  (  1,  4, 47)  (  1,  3, 44)  (  1,  3, 44)  (  1,  2, 22)
  0  0.7701E-06  0  0.3205E-06  0 -0.4369E-06  0  0.3690E-06  0 -0.2318E-06
   (  1,  3, 44)  (  1,  4, 43)  (  1,  3, 44)  (  1,  3, 51)  (  1,  4, 43)
  1  0.3158E-05  0  0.5262E-05  0  0.2565E-05  0 -0.3318E-05  0 -0.3656E-05
   (  1,  4, 50)  (  1,  4, 47)  (  1,  4, 44)  (  1,  4, 49)  (  1,  4, 44)
  0 -0.1696E-05  0  0.2813E-05  0  0.1399E-05  0 -0.8197E-06  0 -0.8717E-06
   (  1,  1, 52)  (  1,  4, 45)  (  1,  4, 44)  (  1,  4, 47)  (  1,  4, 45)
  0  0.6647E-06  0  0.5156E-06  0 -0.6696E-06  0 -0.4294E-06  0 -0.3735E-06
   (  1,  3, 44)  (  1,  4, 45)  (  1,  3, 44)  (  1,  3, 44)  (  1,  4, 48)
  0  0.5606E-06  0  0.2313E-06  0 -0.3167E-06  0 -0.2637E-06  0  0.1761E-06
   (  1,  3, 44)  (  1,  4, 43)  (  1,  3, 44)  (  1,  5, 50)  (  1,  2, 22)
  1  0.2377E-05  0  0.3879E-05  0  0.1898E-05  0 -0.2430E-05  0 -0.2683E-05
   (  1,  4, 50)  (  1,  4, 47)  (  1,  4, 44)  (  1,  4, 45)  (  1,  4, 44)
  0 -0.1254E-05  0  0.2062E-05  0  0.1060E-05  0 -0.6234E-06  0 -0.6373E-06
   (  1,  1, 52)  (  1,  4, 45)  (  1,  4, 44)  (  1,  4, 47)  (  1,  4, 45)
  0  0.5023E-06  0  0.3590E-06  0 -0.4803E-06  0 -0.3133E-06  0 -0.2749E-06
   (  1,  3, 44)  (  1,  4, 45)  (  1,  3, 44)  (  1,  3, 44)  (  1,  2, 22)
  0  0.4205E-06  0  0.1753E-06  0 -0.2377E-06  0  0.2005E-06  0 -0.1260E-06
   (  1,  3, 44)  (  1,  4, 43)  (  1,  3, 44)  (  1,  3, 51)  (  1,  4, 43)
  1  0.1727E-05  0  0.2874E-05  0  0.1397E-05  0 -0.1816E-05  0 -0.1989E-05
   (  1,  4, 50)  (  1,  4, 47)  (  1,  4, 44)  (  1,  4, 49)  (  1,  4, 44)
  0 -0.9323E-06  0  0.1544E-05  0  0.7644E-06  0 -0.4586E-06  0 -0.4978E-06
   (  1,  1, 52)  (  1,  4, 45)  (  1,  4, 44)  (  1,  4, 47)  (  1,  4, 45)
  0  0.3421E-06  0  0.3007E-06  0 -0.3709E-06  0 -0.2227E-06  0 -0.1986E-06
   (  1,  3, 44)  (  1,  4, 47)  (  1,  3, 44)  (  1,  3, 44)  (  1,  4, 48)
  0  0.3040E-06  0  0.1254E-06  0 -0.1710E-06  0 -0.1449E-06  0 -0.9519E-07
   (  1,  3, 44)  (  1,  4, 43)  (  1,  3, 44)  (  1,  5, 50)  (  1,  4, 43)
  1  0.1294E-05  0  0.2125E-05  0  0.1043E-05  0 -0.1319E-05  0 -0.1468E-05
   (  1,  4, 50)  (  1,  4, 47)  (  1,  4, 44)  (  1,  4, 45)  (  1,  4, 44)
  0 -0.6863E-06  0  0.1117E-05  0  0.5795E-06  0 -0.3260E-06  0 -0.3474E-06
   (  1,  1, 52)  (  1,  4, 45)  (  1,  4, 44)  (  1,  4, 47)  (  1,  4, 48)
  0  0.2884E-06  0  0.1985E-06  0  0.2592E-06  0 -0.1751E-06  0 -0.1519E-06
   (  1,  3, 44)  (  1,  4, 49)  (  1,  4, 47)  (  1,  3, 44)  (  1,  2, 22)
  0  0.2314E-06  0  0.9607E-07  0 -0.1300E-06  0  0.1099E-06  0 -0.6878E-07
   (  1,  3, 44)  (  1,  4, 43)  (  1,  3, 44)  (  1,  3, 51)  (  1,  4, 43)
  1  0.9396E-06  0  0.1565E-05  0  0.7621E-06  0 -0.9913E-06  0 -0.1082E-05
   (  1,  4, 50)  (  1,  4, 47)  (  1,  4, 44)  (  1,  4, 49)  (  1,  4, 44)
  0 -0.5075E-06  0  0.8437E-06  0  0.4194E-06  0 -0.2488E-06  0 -0.2704E-06
   (  1,  1, 52)  (  1,  4, 45)  (  1,  4, 44)  (  1,  4, 47)  (  1,  4, 45)
  0  0.1876E-06  0  0.1601E-06  0 -0.2015E-06  0 -0.1228E-06  0 -0.1087E-06
   (  1,  3, 44)  (  1,  4, 47)  (  1,  3, 44)  (  1,  3, 44)  (  1,  4, 48)
  0  0.1663E-06  0  0.6819E-07  0 -0.9316E-07  0 -0.7884E-07  0 -0.5210E-07
   (  1,  3, 44)  (  1,  4, 43)  (  1,  3, 44)  (  1,  5, 50)  (  1,  4, 43)
  1  0.7063E-06  0  0.1158E-05  0  0.5678E-06  0 -0.7219E-06  0 -0.8030E-06
   (  1,  4, 50)  (  1,  4, 47)  (  1,  4, 44)  (  1,  4, 45)  (  1,  4, 44)
  0 -0.3764E-06  0  0.6176E-06  0  0.3181E-06  0 -0.1811E-06  0 -0.1879E-06
   (  1,  1, 52)  (  1,  4, 45)  (  1,  4, 44)  (  1,  4, 47)  (  1,  4, 45)
  0  0.1508E-06  0  0.1059E-06  0 -0.1432E-06  0 -0.9420E-07  0 -0.8175E-07
   (  1,  3, 44)  (  1,  4, 45)  (  1,  3, 44)  (  1,  3, 44)  (  1,  2, 22)
  0  0.1256E-06  0  0.5193E-07  0 -0.7038E-07  0  0.5999E-07  0 -0.3727E-07
   (  1,  3, 44)  (  1,  4, 43)  (  1,  3, 44)  (  1,  3, 51)  (  1,  4, 43)
  1  0.5120E-06  0  0.8480E-06  0  0.4115E-06  0 -0.5374E-06  0 -0.5886E-06
   (  1,  4, 50)  (  1,  4, 47)  (  1,  4, 44)  (  1,  4, 49)  (  1,  4, 44)
  0 -0.2750E-06  0  0.4562E-06  0  0.2274E-06  0 -0.1372E-06  0 -0.1486E-06
   (  1,  1, 52)  (  1,  4, 45)  (  1,  4, 44)  (  1,  4, 47)  (  1,  4, 45)
  0  0.1032E-06  0  0.8636E-07  0 -0.1096E-06  0 -0.6721E-07  0 -0.5987E-07
   (  1,  3, 44)  (  1,  4, 47)  (  1,  3, 44)  (  1,  3, 44)  (  1,  2, 22)
  0  0.9112E-07  0  0.3737E-07  0 -0.5066E-07  0 -0.4317E-07  0 -0.2870E-07
   (  1,  3, 44)  (  1,  4, 43)  (  1,  3, 44)  (  1,  5, 50)  (  1,  4, 43)
  1  0.3827E-06  0  0.6289E-06  0  0.3085E-06  0 -0.3934E-06  0 -0.4359E-06
   (  1,  4, 50)  (  1,  4, 47)  (  1,  4, 44)  (  1,  4, 45)  (  1,  4, 44)
  0 -0.2056E-06  0  0.3319E-06  0  0.1721E-06  0 -0.9946E-07  0 -0.1033E-06
   (  1,  1, 52)  (  1,  4, 45)  (  1,  4, 44)  (  1,  4, 47)  (  1,  4, 48)
  0  0.8375E-07  0  0.5834E-07  0 -0.7802E-07  0 -0.5171E-07  0 -0.4495E-07
   (  1,  3, 44)  (  1,  4, 49)  (  1,  3, 44)  (  1,  3, 44)  (  1,  2, 22)
  0  0.6794E-07  0  0.2804E-07  0 -0.3845E-07  0  0.3247E-07  0 -0.2022E-07
   (  1,  3, 44)  (  1,  4, 43)  (  1,  3, 44)  (  1,  3, 51)  (  1,  4, 43)
  1  0.2811E-06  0  0.4681E-06  0  0.2277E-06  0 -0.2940E-06  0 -0.3204E-06
   (  1,  4, 50)  (  1,  4, 47)  (  1,  4, 44)  (  1,  4, 49)  (  1,  4, 44)
  0 -0.1480E-06  0  0.2536E-06  0  0.1251E-06  0 -0.7417E-07  0 -0.7998E-07
   (  1,  1, 52)  (  1,  4, 45)  (  1,  4, 44)  (  1,  4, 47)  (  1,  4, 45)
  0  0.5822E-07  0  0.4536E-07  0 -0.5991E-07  0 -0.3723E-07  0 -0.3287E-07
   (  1,  3, 44)  (  1,  4, 45)  (  1,  3, 44)  (  1,  3, 44)  (  1,  2, 22)
  0  0.4998E-07  0  0.2080E-07  0 -0.2817E-07  0 -0.2364E-07  0 -0.1517E-07
   (  1,  3, 44)  (  1,  4, 51)  (  1,  3, 44)  (  1,  5, 50)  (  1,  4, 43)
  1  0.2069E-06  0  0.3408E-06  0  0.1696E-06  0 -0.2145E-06  0 -0.2377E-06
   (  1,  4, 50)  (  1,  4, 47)  (  1,  4, 44)  (  1,  4, 45)  (  1,  4, 44)
  0 -0.1124E-06  0  0.1769E-06  0  0.9233E-07  0 -0.5208E-07  0 -0.5538E-07
   (  1,  1, 52)  (  1,  4, 45)  (  1,  4, 44)  (  1,  4, 47)  (  1,  4, 48)
  0  0.4551E-07  0  0.3254E-07  0  0.4244E-07  0 -0.2827E-07  0 -0.2497E-07
   (  1,  3, 44)  (  1,  4, 49)  (  1,  4, 47)  (  1,  3, 44)  (  1,  2, 22)
  0  0.3691E-07  0  0.1520E-07  0 -0.2101E-07  0  0.1735E-07  0 -0.1135E-07
   (  1,  3, 44)  (  1,  4, 43)  (  1,  3, 44)  (  1,  3, 51)  (  1,  4, 43)
  1  0.5974E-06  0 -0.3146E-06  0 -0.4855E-06  0 -0.1092E-06  0  0.3013E-06
   (  1,  4, 50)  (  1,  4, 50)  (  1,  4, 50)  (  1,  3, 51)  (  1,  4, 50)
  0  0.1520E-06  0  0.1003E-06  0 -0.1758E-06  0 -0.1338E-06  0  0.1330E-06
   (  1,  3, 51)  (  1,  2, 50)  (  1,  4, 50)  (  1,  3, 51)  (  1,  4, 50)
  0  0.1154E-06  0  0.6645E-07  0 -0.5545E-07  0 -0.4245E-07  1 -0.5315E-06
   (  1,  3, 51)  (  1,  3, 51)  (  1,  4, 50)  (  1,  3, 51)  (  1,  4, 50)
  0  0.5469E-06  0  0.6792E-06  0  0.1739E-06  0 -0.5319E-06  0 -0.2781E-06
   (  1,  4, 50)  (  1,  4, 50)  (  1,  2, 50)  (  1,  4, 50)  (  1,  3, 51)
  0  0.1995E-06  0  0.2852E-06  0  0.2243E-06  0 -0.1954E-06  0 -0.1385E-06
   (  1,  4, 50)  (  1,  4, 50)  (  1,  3, 51)  (  1,  4, 50)  (  1,  3, 51)
  0 -0.7058E-07  0  0.6095E-07  0  0.5907E-07  0 -0.3415E-07  0  0.5124E-07
   (  1,  3, 51)  (  1,  4, 50)  (  1,  3, 51)  (  1,  4, 50)  (  1,  3, 50)
  0 -0.2853E-07  0 -0.3681E-07  0  0.3707E-07  0  0.2359E-07  1  0.5887E-06
   (  1,  3, 51)  (  1,  3, 50)  (  1,  3, 51)  (  1,  5, 49)  (  1,  4, 50)
  0 -0.3573E-06  0 -0.5233E-06  0 -0.1252E-06  0  0.3657E-06  0  0.1928E-06
   (  1,  4, 50)  (  1,  4, 50)  (  1,  3, 51)  (  1,  4, 50)  (  1,  3, 51)
  0 -0.1269E-06  0 -0.2332E-06  0 -0.1780E-06  0  0.1604E-06  0  0.1167E-06
   (  1,  4, 50)  (  1,  4, 50)  (  1,  3, 51)  (  1,  4, 50)  (  1,  3, 51)
  0  0.7272E-07  0 -0.5376E-07  0 -0.4108E-07  1  0.5171E-07  0 -0.1300E-06
   (  1,  3, 51)  (  1,  4, 50)  (  1,  3, 51)  (  1,  3, 51)  (  1,  4, 48)
  0 -0.6220E-07  0 -0.6328E-07  0  0.8650E-07  0 -0.5474E-07  0 -0.7079E-07
   (  1,  4, 45)  (  1,  1, 52)  (  1,  4, 49)  (  1,  4, 50)  (  1,  4, 48)
  0 -0.5465E-07  0  0.2978E-07  0  0.2957E-07  0 -0.2059E-07  0  0.1593E-07
   (  1,  4, 49)  (  1,  4, 50)  (  1,  4, 47)  (  1,  4, 50)  (  1,  1, 52)
  0 -0.1943E-07  0  0.1997E-07  1 -0.5057E-06  0  0.5640E-06  0  0.6834E-06
   (  1,  4, 47)  (  1,  4, 50)  (  1,  4, 50)  (  1,  4, 50)  (  1,  4, 50)
  0  0.1832E-06  0 -0.5492E-06  0 -0.2782E-06  0  0.2170E-06  0  0.3107E-06
   (  1,  2, 50)  (  1,  4, 50)  (  1,  3, 51)  (  1,  4, 50)  (  1,  4, 50)
  0  0.2294E-06  0 -0.2078E-06  0 -0.1458E-06  0 -0.6714E-07  0  0.6487E-07
   (  1,  3, 51)  (  1,  4, 50)  (  1,  3, 51)  (  1,  3, 51)  (  1,  4, 50)
  0  0.6133E-07  0 -0.3699E-07  0  0.4887E-07  0 -0.2679E-07  0 -0.3943E-07
   (  1,  3, 51)  (  1,  4, 50)  (  1,  3, 50)  (  1,  3, 51)  (  1,  3, 50)
  0  0.4088E-07  0  0.2581E-07  1  0.5849E-06  0 -0.3434E-06  0 -0.5124E-06
   (  1,  3, 51)  (  1,  5, 49)  (  1,  4, 50)  (  1,  4, 50)  (  1,  4, 50)
  0 -0.1233E-06  0  0.3529E-06  0  0.1837E-06  0 -0.1162E-06  0 -0.2164E-06
   (  1,  3, 51)  (  1,  4, 50)  (  1,  3, 51)  (  1,  4, 50)  (  1,  4, 50)
  0 -0.1648E-06  0  0.1502E-06  0  0.1124E-06  0  0.7515E-07  0 -0.5193E-07
   (  1,  3, 51)  (  1,  4, 50)  (  1,  4, 50)  (  1,  3, 51)  (  1,  4, 50)
  0 -0.3910E-07  1  0.4576E-07  0 -0.1230E-06  0 -0.5999E-07  0  0.5851E-07
   (  1,  3, 51)  (  1,  3, 51)  (  1,  4, 48)  (  1,  4, 45)  (  1,  4, 48)
  0  0.8074E-07  0 -0.5062E-07  0 -0.6603E-07  0 -0.5527E-07  0  0.2920E-07
   (  1,  4, 49)  (  1,  4, 50)  (  1,  4, 48)  (  1,  4, 48)  (  1,  4, 50)
  0  0.2891E-07  0 -0.1941E-07  1 -0.5161E-06  0  0.5760E-06  0  0.6820E-06
   (  1,  4, 47)  (  1,  4, 50)  (  1,  4, 50)  (  1,  4, 50)  (  1,  4, 50)
  0  0.1835E-06  0 -0.5374E-06  0 -0.2704E-06  0  0.2132E-06  0  0.3131E-06
   (  1,  2, 50)  (  1,  4, 50)  (  1,  3, 51)  (  1,  4, 50)  (  1,  4, 50)
  0  0.2335E-06  0 -0.2090E-06  0 -0.1473E-06  0 -0.7211E-07  0  0.6215E-07
   (  1,  3, 51)  (  1,  4, 50)  (  1,  3, 51)  (  1,  3, 51)  (  1,  4, 50)
  0  0.5639E-07  0 -0.3262E-07  0  0.4861E-07  0 -0.2994E-07  0 -0.4128E-07
   (  1,  3, 51)  (  1,  4, 50)  (  1,  3, 50)  (  1,  3, 51)  (  1,  3, 50)
  0  0.3878E-07  0  0.2506E-07  1  0.5823E-06  0 -0.3390E-06  0 -0.5072E-06
   (  1,  3, 51)  (  1,  5, 49)  (  1,  4, 50)  (  1,  4, 50)  (  1,  4, 50)
  0 -0.1215E-06  0  0.3431E-06  0  0.1794E-06  0 -0.1172E-06  0 -0.2180E-06
   (  1,  3, 51)  (  1,  4, 50)  (  1,  3, 51)  (  1,  4, 50)  (  1,  4, 50)
  0 -0.1672E-06  0  0.1516E-06  0  0.1130E-06  0  0.6628E-07  0 -0.5474E-07
   (  1,  3, 51)  (  1,  4, 50)  (  1,  3, 51)  (  1,  3, 51)  (  1,  4, 50)
  0 -0.4111E-07  1  0.5114E-07  0 -0.1168E-06  0 -0.5502E-07  0 -0.5847E-07
   (  1,  3, 51)  (  1,  3, 51)  (  1,  4, 48)  (  1,  4, 45)  (  1,  1, 52)
  0  0.7855E-07  0 -0.5368E-07  0 -0.6669E-07  0 -0.5312E-07  0  0.2671E-07
   (  1,  4, 49)  (  1,  4, 50)  (  1,  4, 48)  (  1,  4, 49)  (  1,  4, 50)
  0  0.2729E-07  0 -0.1925E-07  1 -0.5115E-06  0  0.5780E-06  0  0.6697E-06
   (  1,  4, 47)  (  1,  4, 50)  (  1,  4, 50)  (  1,  4, 50)  (  1,  4, 50)
  0  0.1816E-06  0 -0.5406E-06  0 -0.2719E-06  0  0.2182E-06  0  0.3181E-06
   (  1,  2, 50)  (  1,  4, 50)  (  1,  3, 51)  (  1,  4, 50)  (  1,  4, 50)
  0  0.2369E-06  0 -0.2133E-06  0 -0.1499E-06  0 -0.6917E-07  0  0.6383E-07
   (  1,  3, 51)  (  1,  4, 50)  (  1,  3, 51)  (  1,  3, 51)  (  1,  4, 50)
  0  0.5825E-07  0 -0.3751E-07  0  0.4521E-07  0 -0.2538E-07  0 -0.4208E-07
   (  1,  3, 51)  (  1,  4, 50)  (  1,  3, 50)  (  1,  5, 49)  (  1,  3, 50)
  0  0.4096E-07  0  0.2275E-07  1  0.5838E-06  0 -0.3283E-06  0 -0.4960E-06
   (  1,  3, 51)  (  1,  5, 49)  (  1,  4, 50)  (  1,  4, 50)  (  1,  4, 50)
  0 -0.1193E-06  0  0.3384E-06  0  0.1765E-06  0  0.1151E-06  0 -0.2136E-06
   (  1,  3, 51)  (  1,  4, 50)  (  1,  3, 51)  (  1,  2, 50)  (  1,  4, 50)
  0 -0.1561E-06  0  0.1385E-06  0  0.1197E-06  0  0.8070E-07  0 -0.5273E-07
   (  1,  3, 51)  (  1,  4, 50)  (  1,  4, 50)  (  1,  3, 51)  (  1,  4, 50)
  0 -0.3989E-07  1 -0.4288E-07  0 -0.1196E-06  0 -0.5814E-07  0  0.5347E-07
   (  1,  3, 51)  (  1,  4, 49)  (  1,  4, 48)  (  1,  4, 44)  (  1,  4, 48)
  0  0.7101E-07  0 -0.4794E-07  0 -0.6194E-07  0 -0.4925E-07  0  0.3095E-07
   (  1,  4, 49)  (  1,  4, 50)  (  1,  4, 48)  (  1,  4, 48)  (  1,  4, 50)
  0  0.2936E-07  0 -0.2150E-07  0  0.1786E-07  0 -0.1987E-07  0  0.2122E-07
   (  1,  4, 47)  (  1,  4, 50)  (  1,  1, 52)  (  1,  4, 47)  (  1,  4, 50)
  1 -0.5041E-06  0  0.5661E-06  0  0.6805E-06  0  0.1819E-06  0 -0.5477E-06
   (  1,  4, 50)  (  1,  4, 50)  (  1,  4, 50)  (  1,  2, 50)  (  1,  4, 50)
  0 -0.2833E-06  0  0.2195E-06  0  0.3134E-06  0  0.2344E-06  0 -0.2062E-06
   (  1,  3, 51)  (  1,  4, 50)  (  1,  4, 50)  (  1,  3, 51)  (  1,  4, 50)
  0 -0.1450E-06  0 -0.6529E-07  0  0.6531E-07  0  0.6230E-07  0 -0.3852E-07
   (  1,  3, 51)  (  1,  3, 51)  (  1,  4, 50)  (  1,  3, 51)  (  1,  4, 50)
  0  0.4532E-07  0 -0.2403E-07  0 -0.4137E-07  0  0.4398E-07  0  0.2087E-07
   (  1,  3, 50)  (  1,  5, 49)  (  1,  3, 50)  (  1,  3, 51)  (  1,  5, 49)
  1  0.5841E-06  0 -0.3299E-06  0 -0.4970E-06  0 -0.1194E-06  0  0.3402E-06
   (  1,  4, 50)  (  1,  4, 50)  (  1,  4, 50)  (  1,  3, 51)  (  1,  4, 50)
  0  0.1770E-06  0  0.1152E-06  0 -0.2137E-06  0 -0.1587E-06  0  0.1400E-06
   (  1,  3, 51)  (  1,  2, 50)  (  1,  4, 50)  (  1,  3, 51)  (  1,  4, 50)
  0  0.1231E-06  0  0.8256E-07  0 -0.5232E-07  0 -0.3849E-07  1  0.4362E-07
   (  1,  4, 50)  (  1,  3, 51)  (  1,  4, 50)  (  1,  3, 51)  (  1,  3, 51)
  0 -0.1222E-06  0 -0.5842E-07  0  0.5479E-07  0  0.7116E-07  0 -0.5016E-07
   (  1,  4, 48)  (  1,  4, 44)  (  1,  4, 48)  (  1,  4, 49)  (  1,  4, 50)
  0 -0.6576E-07  0 -0.5142E-07  0  0.2930E-07  0  0.2802E-07  0 -0.1954E-07
   (  1,  4, 49)  (  1,  4, 48)  (  1,  4, 50)  (  1,  4, 47)  (  1,  4, 50)
  0  0.1642E-07  0 -0.1901E-07  0  0.2074E-07  1 -0.5000E-06  0  0.5727E-06
   (  1,  1, 52)  (  1,  4, 48)  (  1,  4, 50)  (  1,  4, 50)  (  1,  4, 50)
  0  0.6822E-06  0  0.1825E-06  0 -0.5487E-06  0 -0.2817E-06  0  0.2252E-06
   (  1,  4, 50)  (  1,  2, 50)  (  1,  4, 50)  (  1,  3, 51)  (  1,  4, 50)
  0  0.3188E-06  0  0.2330E-06  0 -0.2073E-06  0 -0.1463E-06  0 -0.6647E-07
   (  1,  4, 50)  (  1,  3, 51)  (  1,  4, 50)  (  1,  3, 51)  (  1,  3, 51)
  0  0.6650E-07  0  0.6275E-07  0 -0.3638E-07  0  0.4717E-07  0 -0.2567E-07
   (  1,  4, 50)  (  1,  3, 51)  (  1,  4, 50)  (  1,  3, 50)  (  1,  3, 51)
  0 -0.3950E-07  0  0.4138E-07  0  0.2579E-07  1  0.5850E-06  0 -0.3354E-06
   (  1,  3, 50)  (  1,  3, 51)  (  1,  5, 49)  (  1,  4, 50)  (  1,  4, 50)
  0 -0.5007E-06  0 -0.1206E-06  0  0.3485E-06  0  0.1853E-06  0  0.1168E-06
   (  1,  4, 50)  (  1,  3, 51)  (  1,  4, 50)  (  1,  3, 51)  (  1,  2, 50)
  0 -0.2183E-06  0 -0.1656E-06  0  0.1489E-06  0  0.1141E-06  0  0.7726E-07
   (  1,  4, 50)  (  1,  3, 51)  (  1,  4, 50)  (  1,  4, 50)  (  1,  3, 51)
  0 -0.5346E-07  0 -0.4030E-07  1  0.4400E-07  0 -0.1182E-06  0 -0.5679E-07
   (  1,  4, 50)  (  1,  3, 51)  (  1,  3, 51)  (  1,  4, 48)  (  1,  4, 45)
  0  0.5453E-07  0  0.7535E-07  0 -0.4675E-07  0 -0.6287E-07  0 -0.5402E-07
   (  1,  4, 48)  (  1,  4, 49)  (  1,  4, 50)  (  1,  4, 49)  (  1,  4, 48)
  0  0.2958E-07  0  0.2922E-07  0 -0.2092E-07  0  0.1805E-07  0 -0.2019E-07
   (  1,  4, 50)  (  1,  4, 47)  (  1,  4, 50)  (  1,  1, 52)  (  1,  4, 47)
  0  0.2054E-07  1 -0.5013E-06  0  0.5695E-06  0  0.6846E-06  0  0.1832E-06
   (  1,  4, 50)  (  1,  4, 50)  (  1,  4, 50)  (  1,  4, 50)  (  1,  2, 50)
  0 -0.5495E-06  0 -0.2818E-06  0  0.2225E-06  0  0.3157E-06  0  0.2332E-06
   (  1,  4, 50)  (  1,  3, 51)  (  1,  4, 50)  (  1,  4, 50)  (  1,  3, 51)
  0 -0.2054E-06  0 -0.1449E-06  0 -0.6573E-07  0  0.6629E-07  0  0.6251E-07
   (  1,  4, 50)  (  1,  3, 51)  (  1,  3, 51)  (  1,  4, 50)  (  1,  3, 51)
  0 -0.3796E-07  0  0.4696E-07  0 -0.2506E-07  0 -0.4010E-07  0  0.4164E-07
   (  1,  4, 50)  (  1,  3, 50)  (  1,  5, 49)  (  1,  3, 50)  (  1,  3, 51)
  0  0.2523E-07  1  0.5853E-06  0 -0.3252E-06  0 -0.4901E-06  0 -0.1167E-06
   (  1,  5, 49)  (  1,  4, 50)  (  1,  4, 50)  (  1,  4, 50)  (  1,  3, 51)
  0  0.3320E-06  0  0.1745E-06  0  0.1108E-06  0 -0.2078E-06  0 -0.1590E-06
   (  1,  4, 50)  (  1,  3, 51)  (  1,  2, 50)  (  1,  4, 50)  (  1,  3, 51)
  0  0.1438E-06  0  0.1143E-06  0  0.7729E-07  0 -0.5044E-07  0 -0.3706E-07
   (  1,  4, 50)  (  1,  4, 50)  (  1,  3, 51)  (  1,  4, 50)  (  1,  3, 51)
  1  0.4369E-07  0 -0.1181E-06  0 -0.5452E-07  0 -0.5492E-07  0  0.7436E-07
   (  1,  3, 51)  (  1,  4, 48)  (  1,  4, 44)  (  1,  1, 52)  (  1,  4, 49)
  0 -0.4862E-07  0 -0.6495E-07  0 -0.5444E-07  0  0.2669E-07  0  0.2694E-07
   (  1,  4, 50)  (  1,  4, 48)  (  1,  4, 48)  (  1,  4, 50)  (  1,  4, 47)
  0 -0.1722E-07  1 -0.5141E-06  0  0.5712E-06  0  0.6736E-06  0  0.1808E-06
   (  1,  4, 50)  (  1,  4, 50)  (  1,  4, 50)  (  1,  4, 50)  (  1,  2, 50)
  0 -0.5383E-06  0 -0.2704E-06  0  0.2167E-06  0  0.3183E-06  0  0.2357E-06
   (  1,  4, 50)  (  1,  3, 51)  (  1,  4, 50)  (  1,  4, 50)  (  1,  3, 51)
  0 -0.2119E-06  0 -0.1481E-06  0 -0.7275E-07  0  0.6261E-07  0  0.5701E-07
   (  1,  4, 50)  (  1,  3, 51)  (  1,  3, 51)  (  1,  4, 50)  (  1,  3, 51)
  0 -0.3196E-07  0  0.4775E-07  0 -0.2926E-07  0 -0.4021E-07  0  0.3893E-07
   (  1,  4, 50)  (  1,  3, 50)  (  1,  3, 51)  (  1,  3, 50)  (  1,  3, 51)
  0  0.2544E-07  1  0.5842E-06  0 -0.3279E-06  0 -0.4960E-06  0 -0.1194E-06
   (  1,  5, 49)  (  1,  4, 50)  (  1,  4, 50)  (  1,  4, 50)  (  1,  3, 51)
  0  0.3412E-06  0  0.1786E-06  0 -0.1144E-06  0 -0.2136E-06  0 -0.1626E-06
   (  1,  4, 50)  (  1,  3, 51)  (  1,  4, 50)  (  1,  4, 50)  (  1,  3, 51)
  0  0.1505E-06  0  0.1112E-06  0  0.6633E-07  0 -0.5359E-07  0 -0.4125E-07
   (  1,  4, 50)  (  1,  3, 51)  (  1,  3, 51)  (  1,  4, 50)  (  1,  3, 51)
  1  0.5025E-07  0 -0.1179E-06  0 -0.5454E-07  0 -0.5897E-07  0  0.7859E-07
   (  1,  3, 51)  (  1,  4, 48)  (  1,  4, 45)  (  1,  1, 52)  (  1,  4, 49)
  0 -0.5394E-07  0 -0.6837E-07  0 -0.5525E-07  0  0.2803E-07  0  0.2827E-07
   (  1,  4, 50)  (  1,  4, 48)  (  1,  4, 49)  (  1,  4, 50)  (  1,  4, 47)
  0 -0.2061E-07  0 -0.1621E-07  0 -0.2045E-07  0  0.1818E-07  1 -0.5025E-06
   (  1,  4, 50)  (  1,  4, 49)  (  1,  4, 47)  (  1,  4, 50)  (  1,  4, 50)
  0  0.5688E-06  0  0.6805E-06  0  0.1826E-06  0 -0.5499E-06  0 -0.2810E-06
   (  1,  4, 50)  (  1,  4, 50)  (  1,  2, 50)  (  1,  4, 50)  (  1,  3, 51)
  0  0.2259E-06  0  0.3217E-06  0  0.2346E-06  0 -0.2099E-06  0 -0.1472E-06
   (  1,  4, 50)  (  1,  4, 50)  (  1,  3, 51)  (  1,  4, 50)  (  1,  3, 51)
  0 -0.6857E-07  0  0.6592E-07  0  0.6151E-07  0 -0.3441E-07  0  0.4770E-07
   (  1,  3, 51)  (  1,  4, 50)  (  1,  3, 51)  (  1,  4, 50)  (  1,  3, 50)
  0 -0.2725E-07  0 -0.3856E-07  0  0.4073E-07  0  0.2589E-07  1  0.5841E-06
   (  1,  3, 51)  (  1,  3, 50)  (  1,  3, 51)  (  1,  5, 49)  (  1,  4, 50)
  0 -0.3283E-06  0 -0.4957E-06  0 -0.1186E-06  0  0.3372E-06  0  0.1750E-06
   (  1,  4, 50)  (  1,  4, 50)  (  1,  3, 51)  (  1,  4, 50)  (  1,  3, 51)
  0 -0.1123E-06  0 -0.2119E-06  0 -0.1647E-06  0  0.1539E-06  0  0.1130E-06
   (  1,  4, 50)  (  1,  4, 50)  (  1,  3, 51)  (  1,  4, 50)  (  1,  3, 51)
  0  0.6964E-07  0 -0.5171E-07  0 -0.3801E-07  1  0.4579E-07  0 -0.1128E-06
   (  1,  3, 51)  (  1,  4, 50)  (  1,  3, 51)  (  1,  3, 51)  (  1,  4, 48)
  0 -0.5387E-07  0 -0.5390E-07  0  0.7649E-07  0 -0.4952E-07  0 -0.6580E-07
   (  1,  4, 45)  (  1,  1, 52)  (  1,  4, 49)  (  1,  4, 50)  (  1,  4, 48)
  0 -0.5083E-07  0  0.2527E-07  0  0.2284E-07  1 -0.5058E-06  0  0.5788E-06
   (  1,  4, 49)  (  1,  4, 50)  (  1,  4, 47)  (  1,  4, 50)  (  1,  4, 50)
  0  0.6871E-06  0  0.1817E-06  0 -0.5342E-06  0 -0.2648E-06  0  0.2273E-06
   (  1,  4, 50)  (  1,  2, 50)  (  1,  4, 50)  (  1,  3, 51)  (  1,  4, 50)
  0  0.3218E-06  0  0.2247E-06  0 -0.2079E-06  0 -0.1464E-06  0 -0.7658E-07
   (  1,  4, 50)  (  1,  3, 51)  (  1,  4, 50)  (  1,  3, 51)  (  1,  3, 51)
  0  0.6303E-07  0  0.5791E-07  0 -0.3215E-07  0  0.4915E-07  0 -0.2938E-07
   (  1,  4, 50)  (  1,  3, 51)  (  1,  4, 50)  (  1,  3, 50)  (  1,  3, 51)
  0 -0.4163E-07  0  0.4135E-07  0  0.2578E-07  1  0.5887E-06  0 -0.3228E-06
   (  1,  3, 50)  (  1,  3, 51)  (  1,  5, 49)  (  1,  4, 50)  (  1,  4, 50)
  0 -0.4898E-06  0 -0.1183E-06  0  0.3396E-06  0  0.1801E-06  0  0.1141E-06
   (  1,  4, 50)  (  1,  3, 51)  (  1,  4, 50)  (  1,  3, 51)  (  1,  2, 50)
  0 -0.2124E-06  0 -0.1640E-06  0  0.1485E-06  0  0.1106E-06  0  0.6551E-07
   (  1,  4, 50)  (  1,  3, 51)  (  1,  4, 50)  (  1,  3, 51)  (  1,  3, 51)
  0 -0.5367E-07  0 -0.4133E-07  1  0.4862E-07  0 -0.1136E-06  0 -0.5667E-07
   (  1,  4, 50)  (  1,  3, 51)  (  1,  3, 51)  (  1,  4, 48)  (  1,  4, 45)
  0 -0.5806E-07  0  0.7612E-07  0 -0.5184E-07  0 -0.6678E-07  0 -0.5320E-07
   (  1,  1, 52)  (  1,  4, 49)  (  1,  4, 50)  (  1,  4, 48)  (  1,  4, 49)
  0  0.2672E-07  0  0.2764E-07  0 -0.1880E-07  0  0.1522E-07  0 -0.1885E-07
   (  1,  4, 50)  (  1,  4, 47)  (  1,  4, 50)  (  1,  1, 52)  (  1,  4, 47)
  0  0.1709E-07  1 -0.5067E-06  0  0.5685E-06  0  0.6834E-06  0  0.1828E-06
   (  1,  4, 50)  (  1,  4, 50)  (  1,  4, 50)  (  1,  4, 50)  (  1,  2, 50)
  0 -0.5477E-06  0 -0.2810E-06  0  0.2203E-06  0  0.3153E-06  0  0.2329E-06
   (  1,  4, 50)  (  1,  3, 51)  (  1,  4, 50)  (  1,  4, 50)  (  1,  3, 51)
  0 -0.2072E-06  0 -0.1457E-06  0 -0.6642E-07  0  0.6540E-07  0  0.6210E-07
   (  1,  4, 50)  (  1,  3, 51)  (  1,  3, 51)  (  1,  4, 50)  (  1,  3, 51)
  0 -0.3770E-07  0  0.4651E-07  0 -0.2497E-07  0 -0.4012E-07  0  0.4166E-07
   (  1,  4, 50)  (  1,  3, 50)  (  1,  5, 49)  (  1,  3, 50)  (  1,  3, 51)
  0  0.2526E-07  1  0.5883E-06  0 -0.3212E-06  0 -0.4898E-06  0 -0.1176E-06
   (  1,  5, 49)  (  1,  4, 50)  (  1,  4, 50)  (  1,  4, 50)  (  1,  3, 51)
  0  0.3296E-06  0  0.1727E-06  0  0.1117E-06  0 -0.2094E-06  0 -0.1565E-06
   (  1,  4, 50)  (  1,  3, 51)  (  1,  2, 50)  (  1,  4, 50)  (  1,  3, 51)
  0  0.1404E-06  0  0.1165E-06  0  0.7933E-07  0 -0.5064E-07  0 -0.3768E-07
   (  1,  4, 50)  (  1,  4, 50)  (  1,  3, 51)  (  1,  4, 50)  (  1,  3, 51)
  1  0.4804E-07  0 -0.1230E-06  0 -0.5487E-07  0  0.5675E-07  0  0.7501E-07
   (  1,  3, 51)  (  1,  4, 48)  (  1,  4, 44)  (  1,  4, 48)  (  1,  4, 49)
  0 -0.5064E-07  0 -0.6285E-07  0 -0.5088E-07  0  0.2917E-07  0  0.2727E-07
   (  1,  4, 50)  (  1,  4, 49)  (  1,  4, 48)  (  1,  4, 50)  (  1,  4, 47)
  0 -0.1934E-07  1 -0.5141E-06  0  0.5708E-06  0  0.6668E-06  0  0.1814E-06
   (  1,  4, 50)  (  1,  4, 50)  (  1,  4, 50)  (  1,  4, 50)  (  1,  2, 50)
  0 -0.5415E-06  0 -0.2720E-06  0  0.2131E-06  0  0.3135E-06  0  0.2330E-06
   (  1,  4, 50)  (  1,  3, 51)  (  1,  4, 50)  (  1,  4, 50)  (  1,  3, 51)
  0 -0.2084E-06  0 -0.1458E-06  0 -0.7445E-07  0  0.6189E-07  0  0.5627E-07
   (  1,  4, 50)  (  1,  3, 51)  (  1,  3, 51)  (  1,  4, 50)  (  1,  3, 51)
  0 -0.3157E-07  0  0.4859E-07  0 -0.2952E-07  0 -0.4010E-07  0  0.3924E-07
   (  1,  4, 50)  (  1,  3, 50)  (  1,  3, 51)  (  1,  3, 50)  (  1,  3, 51)
  0  0.2549E-07  1  0.5865E-06  0 -0.3301E-06  0 -0.4999E-06  0 -0.1212E-06
   (  1,  5, 49)  (  1,  4, 50)  (  1,  4, 50)  (  1,  4, 50)  (  1,  3, 51)
  0  0.3442E-06  0  0.1816E-06  0  0.1153E-06  0 -0.2153E-06  0 -0.1662E-06
   (  1,  4, 50)  (  1,  3, 51)  (  1,  2, 50)  (  1,  4, 50)  (  1,  3, 51)
  0  0.1498E-06  0  0.1116E-06  0  0.6558E-07  0 -0.5487E-07  0 -0.4181E-07
   (  1,  4, 50)  (  1,  3, 51)  (  1,  3, 51)  (  1,  4, 50)  (  1,  3, 51)
  1  0.4823E-07  0 -0.1131E-06  0 -0.5475E-07  0 -0.5484E-07  0  0.7322E-07
   (  1,  3, 51)  (  1,  4, 48)  (  1,  4, 45)  (  1,  1, 52)  (  1,  4, 49)
  0 -0.4880E-07  0 -0.6200E-07  0 -0.5465E-07  0  0.2777E-07  0  0.2920E-07
   (  1,  4, 50)  (  1,  4, 48)  (  1,  4, 49)  (  1,  4, 50)  (  1,  4, 47)
  0 -0.2069E-07  0  0.1577E-07  0 -0.1937E-07  0  0.1760E-07  1 -0.5062E-06
   (  1,  4, 50)  (  1,  1, 52)  (  1,  4, 47)  (  1,  4, 50)  (  1,  4, 50)
  0  0.5672E-06  0  0.6782E-06  0  0.1818E-06  0 -0.5459E-06  0 -0.2793E-06
   (  1,  4, 50)  (  1,  4, 50)  (  1,  2, 50)  (  1,  4, 50)  (  1,  3, 51)
  0  0.2198E-06  0  0.3154E-06  0  0.2322E-06  0 -0.2050E-06  0 -0.1446E-06
   (  1,  4, 50)  (  1,  4, 50)  (  1,  3, 51)  (  1,  4, 50)  (  1,  3, 51)
  0 -0.6591E-07  0  0.6538E-07  0  0.6172E-07  0 -0.3741E-07  0  0.4644E-07
   (  1,  3, 51)  (  1,  4, 50)  (  1,  3, 51)  (  1,  4, 50)  (  1,  3, 50)
  0 -0.2507E-07  0 -0.3983E-07  0  0.4184E-07  0  0.2557E-07  1  0.5865E-06
   (  1,  5, 49)  (  1,  3, 50)  (  1,  3, 51)  (  1,  5, 49)  (  1,  4, 50)
  0 -0.3301E-06  0 -0.4969E-06  0 -0.1194E-06  0  0.3386E-06  0  0.1781E-06
   (  1,  4, 50)  (  1,  4, 50)  (  1,  3, 51)  (  1,  4, 50)  (  1,  3, 51)
  0  0.1132E-06  0 -0.2121E-06  0 -0.1609E-06  0  0.1432E-06  0  0.1134E-06
   (  1,  2, 50)  (  1,  4, 50)  (  1,  3, 51)  (  1,  4, 50)  (  1,  4, 50)
  0  0.7755E-07  0 -0.5190E-07  0 -0.3857E-07  1  0.4461E-07  0 -0.1191E-06
   (  1,  3, 51)  (  1,  4, 50)  (  1,  3, 51)  (  1,  3, 51)  (  1,  4, 48)
  0 -0.5480E-07  0  0.5586E-07  0  0.7540E-07  0 -0.4860E-07  0 -0.6317E-07
   (  1,  4, 44)  (  1,  4, 48)  (  1,  4, 49)  (  1,  4, 50)  (  1,  4, 48)
  0 -0.5580E-07  0  0.2722E-07  0  0.2877E-07  0 -0.2014E-07  0  0.1665E-07
   (  1,  4, 48)  (  1,  4, 50)  (  1,  4, 47)  (  1,  4, 50)  (  1,  1, 52)
  0 -0.1989E-07  0  0.2009E-07  1 -0.5009E-06  0  0.5679E-06  0  0.6790E-06
   (  1,  4, 47)  (  1,  4, 50)  (  1,  4, 50)  (  1,  4, 50)  (  1,  4, 50)
  0  0.1820E-06  0 -0.5478E-06  0 -0.2797E-06  0  0.2218E-06  0  0.3190E-06
   (  1,  2, 50)  (  1,  4, 50)  (  1,  3, 51)  (  1,  4, 50)  (  1,  4, 50)
  0  0.2329E-06  0 -0.2063E-06  0 -0.1455E-06  0 -0.6641E-07  0  0.6591E-07
   (  1,  3, 51)  (  1,  4, 50)  (  1,  3, 51)  (  1,  3, 51)  (  1,  4, 50)
  0  0.6208E-07  0 -0.3704E-07  0  0.4680E-07  0 -0.2521E-07  0 -0.3952E-07
   (  1,  3, 51)  (  1,  4, 50)  (  1,  3, 50)  (  1,  5, 49)  (  1,  3, 50)
  0  0.4120E-07  0  0.2556E-07  1  0.5842E-06  0 -0.3344E-06  0 -0.4965E-06
   (  1,  3, 51)  (  1,  5, 49)  (  1,  4, 50)  (  1,  4, 50)  (  1,  4, 50)
  0 -0.1185E-06  0  0.3376E-06  0  0.1761E-06  0  0.1108E-06  0 -0.2110E-06
   (  1,  3, 51)  (  1,  4, 50)  (  1,  3, 51)  (  1,  2, 50)  (  1,  4, 50)
  0 -0.1615E-06  0  0.1468E-06  0  0.1128E-06  0  0.7607E-07  0 -0.5091E-07
   (  1,  3, 51)  (  1,  4, 50)  (  1,  4, 50)  (  1,  3, 51)  (  1,  4, 50)
  0 -0.3755E-07  1  0.4267E-07  0 -0.1166E-06  0 -0.5595E-07  0  0.5659E-07
   (  1,  3, 51)  (  1,  3, 51)  (  1,  4, 48)  (  1,  4, 45)  (  1,  4, 48)
  0  0.7949E-07  0 -0.4870E-07  0  0.6497E-07  0 -0.5555E-07  0  0.2777E-07
   (  1,  4, 49)  (  1,  4, 50)  (  1,  1, 52)  (  1,  4, 48)  (  1,  4, 50)
  0  0.2686E-07  0 -0.1771E-07  1 -0.5131E-06  0  0.5744E-06  0  0.6697E-06
   (  1,  4, 47)  (  1,  4, 50)  (  1,  4, 50)  (  1,  4, 50)  (  1,  4, 50)
  0  0.1801E-06  0 -0.5349E-06  0 -0.2694E-06  0  0.2152E-06  0  0.3173E-06
   (  1,  2, 50)  (  1,  4, 50)  (  1,  3, 51)  (  1,  4, 50)  (  1,  4, 50)
  0  0.2338E-06  0 -0.2121E-06  0 -0.1488E-06  0 -0.7242E-07  0  0.6232E-07
   (  1,  3, 51)  (  1,  4, 50)  (  1,  3, 51)  (  1,  3, 51)  (  1,  4, 50)
  0  0.5708E-07  0 -0.3180E-07  0  0.4719E-07  0 -0.2901E-07  0 -0.4011E-07
   (  1,  3, 51)  (  1,  4, 50)  (  1,  3, 50)  (  1,  3, 51)  (  1,  3, 50)
  0  0.3912E-07  0  0.2548E-07  1  0.5824E-06  0 -0.3278E-06  0 -0.4928E-06
   (  1,  3, 51)  (  1,  5, 49)  (  1,  4, 50)  (  1,  4, 50)  (  1,  4, 50)
  0 -0.1176E-06  0  0.3393E-06  0  0.1775E-06  0 -0.1153E-06  0 -0.2148E-06
   (  1,  3, 51)  (  1,  4, 50)  (  1,  3, 51)  (  1,  4, 50)  (  1,  4, 50)
  0 -0.1638E-06  0  0.1500E-06  0  0.1102E-06  0  0.6869E-07  0 -0.5384E-07
   (  1,  3, 51)  (  1,  4, 50)  (  1,  3, 51)  (  1,  3, 51)  (  1,  4, 50)
  0 -0.4046E-07  1  0.4491E-07  0 -0.1133E-06  0 -0.5442E-07  0 -0.5462E-07
   (  1,  3, 51)  (  1,  3, 51)  (  1,  4, 48)  (  1,  4, 45)  (  1,  1, 52)
  0  0.7452E-07  0 -0.4779E-07  0 -0.6112E-07  0 -0.5006E-07  0  0.2565E-07
   (  1,  4, 49)  (  1,  4, 50)  (  1,  4, 48)  (  1,  4, 49)  (  1,  4, 50)
  0  0.2664E-07  1 -0.4992E-06  0  0.5866E-06  0  0.6842E-06  0  0.1813E-06
   (  1,  4, 47)  (  1,  4, 50)  (  1,  4, 50)  (  1,  4, 50)  (  1,  2, 50)
  0 -0.5377E-06  0 -0.2647E-06  0  0.2284E-06  0  0.3241E-06  0  0.2288E-06
   (  1,  4, 50)  (  1,  3, 51)  (  1,  4, 50)  (  1,  4, 50)  (  1,  3, 51)
  0 -0.2170E-06  0 -0.1513E-06  0 -0.7299E-07  0  0.6316E-07  0  0.5763E-07
   (  1,  4, 50)  (  1,  3, 51)  (  1,  3, 51)  (  1,  4, 50)  (  1,  3, 51)
  0 -0.3265E-07  0  0.4868E-07  0 -0.2906E-07  0 -0.4130E-07  0  0.4140E-07
   (  1,  4, 50)  (  1,  3, 50)  (  1,  3, 51)  (  1,  3, 50)  (  1,  3, 51)
  0  0.2577E-07  1  0.5865E-06  0 -0.3273E-06  0 -0.4977E-06  0 -0.1193E-06
   (  1,  5, 49)  (  1,  4, 50)  (  1,  4, 50)  (  1,  4, 50)  (  1,  3, 51)
  0  0.3429E-06  0  0.1815E-06  0 -0.1172E-06  0 -0.2186E-06  0 -0.1679E-06
   (  1,  4, 50)  (  1,  3, 51)  (  1,  4, 50)  (  1,  4, 50)  (  1,  3, 51)
  0  0.1526E-06  0  0.1129E-06  0  0.6900E-07  0 -0.5510E-07  0 -0.4148E-07
   (  1,  4, 50)  (  1,  3, 51)  (  1,  3, 51)  (  1,  4, 50)  (  1,  3, 51)
  1  0.4744E-07  0 -0.1176E-06  0 -0.5535E-07  0 -0.5585E-07  0  0.7491E-07
   (  1,  3, 51)  (  1,  4, 48)  (  1,  4, 45)  (  1,  1, 52)  (  1,  4, 49)
  0 -0.5025E-07  0 -0.6330E-07  0 -0.5032E-07  0  0.2906E-07  0  0.2811E-07
   (  1,  4, 50)  (  1,  4, 48)  (  1,  4, 49)  (  1,  4, 50)  (  1,  4, 47)
  0 -0.2059E-07  0  0.1532E-07  0 -0.1938E-07  0  0.1919E-07  1 -0.5078E-06
   (  1,  4, 50)  (  1,  1, 52)  (  1,  4, 47)  (  1,  4, 50)  (  1,  4, 50)
  0  0.5626E-06  0  0.6756E-06  0  0.1808E-06  0 -0.5410E-06  0 -0.2769E-06
   (  1,  4, 50)  (  1,  4, 50)  (  1,  2, 50)  (  1,  4, 50)  (  1,  3, 51)
  0  0.2170E-06  0  0.3140E-06  0  0.2314E-06  0 -0.2047E-06  0 -0.1446E-06
   (  1,  4, 50)  (  1,  4, 50)  (  1,  3, 51)  (  1,  4, 50)  (  1,  3, 51)
  0 -0.6677E-07  0  0.6447E-07  0  0.6101E-07  0 -0.3548E-07  0  0.4697E-07
   (  1,  3, 51)  (  1,  4, 50)  (  1,  3, 51)  (  1,  4, 50)  (  1,  3, 50)
  0 -0.2628E-07  0 -0.3890E-07  0  0.4098E-07  0  0.2603E-07  1  0.5890E-06
   (  1,  3, 51)  (  1,  3, 50)  (  1,  3, 51)  (  1,  5, 49)  (  1,  4, 50)
  0 -0.3266E-06  0 -0.4954E-06  0 -0.1198E-06  0  0.3372E-06  0  0.1772E-06
   (  1,  4, 50)  (  1,  4, 50)  (  1,  3, 51)  (  1,  4, 50)  (  1,  3, 51)
  0  0.1115E-06  0 -0.2096E-06  0 -0.1632E-06  0  0.1471E-06  0  0.1097E-06
   (  1,  2, 50)  (  1,  4, 50)  (  1,  3, 51)  (  1,  4, 50)  (  1,  4, 50)
  0  0.7302E-07  0 -0.5108E-07  0 -0.3750E-07  1  0.4521E-07  0 -0.1175E-06
   (  1,  3, 51)  (  1,  4, 50)  (  1,  3, 51)  (  1,  3, 51)  (  1,  4, 48)
  0 -0.5350E-07  0  0.5424E-07  0  0.7400E-07  0 -0.4769E-07  0 -0.6221E-07
   (  1,  4, 45)  (  1,  4, 48)  (  1,  4, 49)  (  1,  4, 50)  (  1,  4, 49)
  0 -0.5301E-07  0  0.2667E-07  0  0.2763E-07  0 -0.1765E-07  1 -0.5132E-06
   (  1,  4, 48)  (  1,  4, 50)  (  1,  4, 47)  (  1,  4, 50)  (  1,  4, 50)
  0  0.5762E-06  0  0.6714E-06  0  0.1826E-06  0 -0.5481E-06  0 -0.2754E-06
   (  1,  4, 50)  (  1,  4, 50)  (  1,  2, 50)  (  1,  4, 50)  (  1,  3, 51)
  0  0.2155E-06  0  0.3160E-06  0  0.2367E-06  0 -0.2120E-06  0 -0.1481E-06
   (  1,  4, 50)  (  1,  4, 50)  (  1,  3, 51)  (  1,  4, 50)  (  1,  3, 51)
  0 -0.7041E-07  0  0.6284E-07  0  0.5787E-07  0 -0.3442E-07  0  0.4825E-07
   (  1,  3, 51)  (  1,  4, 50)  (  1,  3, 51)  (  1,  4, 50)  (  1,  3, 50)
  0 -0.2846E-07  0 -0.4033E-07  0  0.3946E-07  0  0.2546E-07  1  0.5824E-06
   (  1,  3, 51)  (  1,  3, 50)  (  1,  3, 51)  (  1,  5, 49)  (  1,  4, 50)
  0 -0.3342E-06  0 -0.4985E-06  0 -0.1192E-06  0  0.3465E-06  0  0.1831E-06
   (  1,  4, 50)  (  1,  4, 50)  (  1,  3, 51)  (  1,  4, 50)  (  1,  3, 51)
  0 -0.1189E-06  0 -0.2207E-06  0 -0.1681E-06  0  0.1542E-06  0  0.1137E-06
   (  1,  4, 50)  (  1,  4, 50)  (  1,  3, 51)  (  1,  4, 50)  (  1,  3, 51)
  0  0.7044E-07  0 -0.5500E-07  0 -0.4129E-07  1  0.4434E-07  0 -0.1150E-06
   (  1,  3, 51)  (  1,  4, 50)  (  1,  3, 51)  (  1,  3, 51)  (  1,  4, 48)
  0 -0.5649E-07  0 -0.5349E-07  0  0.7679E-07  0 -0.4858E-07  0  0.6341E-07
   (  1,  4, 45)  (  1,  1, 52)  (  1,  4, 49)  (  1,  4, 50)  (  1,  1, 52)
  0 -0.5352E-07  0  0.2745E-07  0  0.2822E-07  0 -0.1979E-07  1 -0.5167E-06
   (  1,  4, 49)  (  1,  4, 50)  (  1,  4, 47)  (  1,  4, 50)  (  1,  4, 50)
  0  0.5743E-06  0  0.6726E-06  0  0.1813E-06  0 -0.5355E-06  0 -0.2724E-06
   (  1,  4, 50)  (  1,  4, 50)  (  1,  2, 50)  (  1,  4, 50)  (  1,  3, 51)
  0  0.2115E-06  0  0.3137E-06  0  0.2346E-06  0 -0.2104E-06  0 -0.1483E-06
   (  1,  4, 50)  (  1,  4, 50)  (  1,  3, 51)  (  1,  4, 50)  (  1,  3, 51)
  0 -0.6867E-07  0  0.6266E-07  0  0.5825E-07  0 -0.3791E-07  0  0.4496E-07
   (  1,  3, 51)  (  1,  4, 50)  (  1,  3, 51)  (  1,  4, 50)  (  1,  3, 50)
  0 -0.2490E-07  0 -0.4325E-07  0  0.4285E-07  0 -0.2039E-07  1  0.5834E-06
   (  1,  5, 49)  (  1,  3, 50)  (  1,  3, 51)  (  1,  4, 49)  (  1,  4, 50)
  0 -0.3266E-06  0 -0.4939E-06  0 -0.1200E-06  0  0.3338E-06  0  0.1769E-06
   (  1,  4, 50)  (  1,  4, 50)  (  1,  3, 51)  (  1,  4, 50)  (  1,  3, 51)
  0  0.1139E-06  0 -0.2093E-06  0 -0.1631E-06  0  0.1496E-06  0  0.1122E-06
   (  1,  2, 50)  (  1,  4, 50)  (  1,  3, 51)  (  1,  4, 50)  (  1,  3, 51)
  0  0.6356E-07  0 -0.5369E-07  0 -0.4101E-07  1  0.5770E-07  0 -0.1174E-06
   (  1,  3, 51)  (  1,  4, 50)  (  1,  3, 51)  (  1,  3, 51)  (  1,  4, 48)
  0 -0.5418E-07  0 -0.6093E-07  0  0.7824E-07  0 -0.5598E-07  0 -0.7022E-07
   (  1,  4, 45)  (  1,  1, 52)  (  1,  4, 49)  (  1,  4, 50)  (  1,  4, 48)
  0 -0.5640E-07  0  0.2680E-07  0  0.2515E-07  1 -0.5005E-06  0  0.5878E-06
   (  1,  4, 49)  (  1,  4, 50)  (  1,  4, 47)  (  1,  4, 50)  (  1,  4, 50)
  0  0.6912E-06  0  0.1836E-06  0 -0.5390E-06  0 -0.2669E-06  0  0.2299E-06
   (  1,  4, 50)  (  1,  2, 50)  (  1,  4, 50)  (  1,  3, 51)  (  1,  4, 50)
  0  0.3277E-06  0  0.2322E-06  0 -0.2136E-06  0 -0.1530E-06  0 -0.7219E-07
   (  1,  4, 50)  (  1,  3, 51)  (  1,  4, 50)  (  1,  3, 51)  (  1,  3, 51)
  0  0.6502E-07  0  0.5744E-07  0 -0.3325E-07  0  0.4858E-07  0 -0.2883E-07
   (  1,  4, 50)  (  1,  3, 51)  (  1,  4, 50)  (  1,  3, 50)  (  1,  3, 51)
  0 -0.4161E-07  0  0.4086E-07  0  0.2568E-07  1  0.5859E-06  0 -0.3228E-06
   (  1,  3, 50)  (  1,  3, 51)  (  1,  5, 49)  (  1,  4, 50)  (  1,  4, 50)
  0 -0.4900E-06  0 -0.1175E-06  0  0.3372E-06  0  0.1778E-06  0 -0.1146E-06
   (  1,  4, 50)  (  1,  3, 51)  (  1,  4, 50)  (  1,  3, 51)  (  1,  4, 50)
  0 -0.2160E-06  0 -0.1656E-06  0  0.1511E-06  0  0.1121E-06  0  0.6655E-07
   (  1,  4, 50)  (  1,  3, 51)  (  1,  4, 50)  (  1,  3, 51)  (  1,  3, 51)
  0 -0.5455E-07  0 -0.4129E-07  1  0.5073E-07  0 -0.1176E-06  0 -0.5706E-07
   (  1,  4, 50)  (  1,  3, 51)  (  1,  3, 51)  (  1,  4, 48)  (  1,  4, 45)
  0 -0.5817E-07  0  0.7710E-07  0 -0.5255E-07  0 -0.6420E-07  0 -0.5244E-07
   (  1,  1, 52)  (  1,  4, 49)  (  1,  4, 50)  (  1,  4, 48)  (  1,  4, 49)
  0  0.2617E-07  0  0.2646E-07  1 -0.4978E-06  0  0.5910E-06  0  0.6833E-06
   (  1,  4, 50)  (  1,  4, 47)  (  1,  4, 50)  (  1,  4, 50)  (  1,  4, 50)
  0  0.1826E-06  0 -0.5361E-06  0 -0.2612E-06  0  0.2261E-06  0  0.3234E-06
   (  1,  2, 50)  (  1,  4, 50)  (  1,  3, 51)  (  1,  4, 50)  (  1,  4, 50)
  0  0.2273E-06  0 -0.2155E-06  0 -0.1518E-06  0 -0.7144E-07  0  0.6301E-07
   (  1,  3, 51)  (  1,  4, 50)  (  1,  3, 51)  (  1,  3, 51)  (  1,  4, 50)
  0  0.5698E-07  0 -0.3312E-07  0  0.4862E-07  0 -0.2930E-07  0 -0.4176E-07
   (  1,  3, 51)  (  1,  4, 50)  (  1,  3, 50)  (  1,  3, 51)  (  1,  3, 50)
  0  0.4127E-07  0  0.2585E-07  1  0.5854E-06  0 -0.3283E-06  0 -0.4919E-06
   (  1,  3, 51)  (  1,  5, 49)  (  1,  4, 50)  (  1,  4, 50)  (  1,  4, 50)
  0 -0.1181E-06  0  0.3403E-06  0  0.1778E-06  0 -0.1136E-06  0 -0.2135E-06
   (  1,  3, 51)  (  1,  4, 50)  (  1,  3, 51)  (  1,  4, 50)  (  1,  4, 50)
  0 -0.1632E-06  0  0.1497E-06  0  0.1109E-06  0  0.6662E-07  0 -0.5353E-07
   (  1,  3, 51)  (  1,  4, 50)  (  1,  3, 51)  (  1,  3, 51)  (  1,  4, 50)
  0 -0.4081E-07  1  0.4922E-07  0 -0.1157E-06  0 -0.5358E-07  0 -0.5807E-07
   (  1,  3, 51)  (  1,  3, 51)  (  1,  4, 48)  (  1,  4, 45)  (  1,  1, 52)
  0  0.7855E-07  0 -0.5222E-07  0 -0.6616E-07  0 -0.5276E-07  0  0.2784E-07
   (  1,  4, 49)  (  1,  4, 50)  (  1,  4, 48)  (  1,  4, 49)  (  1,  4, 50)
  0  0.2538E-07  1 -0.5065E-06  0  0.5776E-06  0  0.6801E-06  0  0.1822E-06
   (  1,  4, 47)  (  1,  4, 50)  (  1,  4, 50)  (  1,  4, 50)  (  1,  2, 50)
  0 -0.5323E-06  0 -0.2630E-06  0  0.2247E-06  0  0.3229E-06  0  0.2265E-06
   (  1,  4, 50)  (  1,  3, 51)  (  1,  4, 50)  (  1,  4, 50)  (  1,  3, 51)
  0 -0.2122E-06  0 -0.1507E-06  0 -0.6848E-07  0  0.6394E-07  0  0.5838E-07
   (  1,  4, 50)  (  1,  3, 51)  (  1,  3, 51)  (  1,  4, 50)  (  1,  3, 51)
  0 -0.3509E-07  0  0.4747E-07  0 -0.2808E-07  0 -0.4164E-07  0  0.4069E-07
   (  1,  4, 50)  (  1,  3, 50)  (  1,  3, 51)  (  1,  3, 50)  (  1,  3, 51)
  0  0.2539E-07  1  0.5869E-06  0 -0.3277E-06  0 -0.4973E-06  0 -0.1207E-06
   (  1,  5, 49)  (  1,  4, 50)  (  1,  4, 50)  (  1,  4, 50)  (  1,  3, 51)
  0  0.3478E-06  0  0.1819E-06  0 -0.1169E-06  0 -0.2180E-06  0 -0.1659E-06
   (  1,  4, 50)  (  1,  3, 51)  (  1,  4, 50)  (  1,  4, 50)  (  1,  3, 51)
  0  0.1508E-06  0  0.1112E-06  0  0.6942E-07  0 -0.5447E-07  0 -0.4142E-07
   (  1,  4, 50)  (  1,  3, 51)  (  1,  3, 51)  (  1,  4, 50)  (  1,  3, 51)
  1  0.4482E-07  0 -0.1173E-06  0 -0.5799E-07  0 -0.5271E-07  0  0.7480E-07
   (  1,  3, 51)  (  1,  4, 48)  (  1,  4, 45)  (  1,  1, 52)  (  1,  4, 49)
  0 -0.4849E-07  0  0.6356E-07  0 -0.5112E-07  0  0.2884E-07  0  0.2838E-07
   (  1,  4, 50)  (  1,  1, 52)  (  1,  4, 49)  (  1,  4, 50)  (  1,  4, 47)
  1 -0.5054E-06  0  0.5862E-06  0  0.6845E-06  0  0.1803E-06  0 -0.5281E-06
   (  1,  4, 50)  (  1,  4, 50)  (  1,  4, 50)  (  1,  2, 50)  (  1,  4, 50)
  0 -0.2617E-06  0  0.2244E-06  0  0.3193E-06  0  0.2274E-06  0 -0.2140E-06
   (  1,  3, 51)  (  1,  4, 50)  (  1,  4, 50)  (  1,  3, 51)  (  1,  4, 50)
  0 -0.1515E-06  0 -0.7152E-07  0  0.6253E-07  0  0.5670E-07  0 -0.3226E-07
   (  1,  3, 51)  (  1,  3, 51)  (  1,  4, 50)  (  1,  3, 51)  (  1,  4, 50)
  0  0.4787E-07  0 -0.2897E-07  0 -0.4144E-07  0  0.4100E-07  0  0.2565E-07
   (  1,  3, 50)  (  1,  3, 51)  (  1,  3, 50)  (  1,  3, 51)  (  1,  5, 49)
  1  0.5865E-06  0 -0.3363E-06  0 -0.5044E-06  0 -0.1218E-06  0  0.3506E-06
   (  1,  4, 50)  (  1,  4, 50)  (  1,  4, 50)  (  1,  3, 51)  (  1,  4, 50)
  0  0.1855E-06  0 -0.1188E-06  0 -0.2194E-06  0 -0.1693E-06  0  0.1536E-06
   (  1,  3, 51)  (  1,  4, 50)  (  1,  4, 50)  (  1,  3, 51)  (  1,  4, 50)
  0  0.1146E-06  0  0.6707E-07  0 -0.5567E-07  0 -0.4285E-07  1  0.5095E-07
   (  1,  3, 51)  (  1,  3, 51)  (  1,  4, 50)  (  1,  3, 51)  (  1,  3, 51)
  0 -0.1153E-06  0 -0.5334E-07  0 -0.5736E-07  0  0.7554E-07  0 -0.4986E-07
   (  1,  4, 48)  (  1,  4, 45)  (  1,  1, 52)  (  1,  4, 49)  (  1,  4, 50)
  0 -0.6403E-07  0 -0.5426E-07  0  0.2704E-07  0  0.2943E-07  0 -0.2185E-07
   (  1,  4, 48)  (  1,  4, 49)  (  1,  4, 50)  (  1,  4, 47)  (  1,  4, 50)
  0  0.1669E-07  0 -0.2035E-07  0  0.1782E-07  1 -0.5051E-06  0  0.5715E-06
   (  1,  1, 52)  (  1,  4, 47)  (  1,  4, 50)  (  1,  4, 50)  (  1,  4, 50)
  0  0.6826E-06  0  0.1836E-06  0 -0.5524E-06  0 -0.2823E-06  0  0.2218E-06
   (  1,  4, 50)  (  1,  2, 50)  (  1,  4, 50)  (  1,  3, 51)  (  1,  4, 50)
  0  0.3172E-06  0  0.2344E-06  0 -0.2062E-06  0 -0.1456E-06  0 -0.6633E-07
   (  1,  4, 50)  (  1,  3, 51)  (  1,  4, 50)  (  1,  3, 51)  (  1,  3, 51)
  0  0.6605E-07  0  0.6175E-07  0 -0.3732E-07  0  0.4756E-07  0 -0.2572E-07
   (  1,  4, 50)  (  1,  3, 51)  (  1,  4, 50)  (  1,  3, 50)  (  1,  3, 51)
  0 -0.3943E-07  0  0.4145E-07  0  0.2571E-07  1  0.5823E-06  0 -0.3414E-06
   (  1,  3, 50)  (  1,  3, 51)  (  1,  5, 49)  (  1,  4, 50)  (  1,  4, 50)
  0 -0.5033E-06  0 -0.1193E-06  0  0.3423E-06  0  0.1809E-06  0 -0.1138E-06
   (  1,  4, 50)  (  1,  3, 51)  (  1,  4, 50)  (  1,  3, 51)  (  1,  4, 50)
  0 -0.2134E-06  0 -0.1623E-06  0  0.1455E-06  0  0.1127E-06  0  0.7695E-07
   (  1,  4, 50)  (  1,  3, 51)  (  1,  4, 50)  (  1,  4, 50)  (  1,  3, 51)
  0 -0.5231E-07  0 -0.3891E-07  1  0.4325E-07  0 -0.1149E-06  0 -0.5353E-07
   (  1,  4, 50)  (  1,  3, 51)  (  1,  3, 51)  (  1,  4, 48)  (  1,  4, 44)
  0  0.5457E-07  0  0.7394E-07  0 -0.4523E-07  0 -0.6158E-07  0 -0.5466E-07
   (  1,  4, 48)  (  1,  4, 49)  (  1,  4, 50)  (  1,  4, 48)  (  1,  4, 48)
  0  0.2827E-07  0  0.2879E-07  0 -0.1861E-07  1 -0.5111E-06  0  0.5824E-06
   (  1,  4, 50)  (  1,  4, 47)  (  1,  4, 50)  (  1,  4, 50)  (  1,  4, 50)
  0  0.6709E-06  0  0.1828E-06  0 -0.5449E-06  0 -0.2735E-06  0  0.2148E-06
   (  1,  4, 50)  (  1,  2, 50)  (  1,  4, 50)  (  1,  3, 51)  (  1,  4, 50)
  0  0.3163E-06  0  0.2354E-06  0 -0.2095E-06  0 -0.1475E-06  0 -0.7170E-07
   (  1,  4, 50)  (  1,  3, 51)  (  1,  4, 50)  (  1,  3, 51)  (  1,  3, 51)
  0  0.6271E-07  0  0.5686E-07  0 -0.3286E-07  0  0.4840E-07  0 -0.2965E-07
   (  1,  4, 50)  (  1,  3, 51)  (  1,  4, 50)  (  1,  3, 50)  (  1,  3, 51)
  0 -0.4075E-07  0  0.3951E-07  0  0.2549E-07  1  0.5858E-06  0 -0.3329E-06
   (  1,  3, 50)  (  1,  3, 51)  (  1,  5, 49)  (  1,  4, 50)  (  1,  4, 50)
  0 -0.5007E-06  0 -0.1214E-06  0  0.3459E-06  0  0.1827E-06  0 -0.1169E-06
   (  1,  4, 50)  (  1,  3, 51)  (  1,  4, 50)  (  1,  3, 51)  (  1,  4, 50)
  0 -0.2186E-06  0 -0.1673E-06  0  0.1505E-06  0  0.1120E-06  0  0.7003E-07
   (  1,  4, 50)  (  1,  3, 51)  (  1,  4, 50)  (  1,  3, 51)  (  1,  3, 51)
  0 -0.5510E-07  0 -0.4124E-07  1  0.4577E-07  0 -0.1156E-06  0 -0.5464E-07
   (  1,  4, 50)  (  1,  3, 51)  (  1,  3, 51)  (  1,  4, 48)  (  1,  4, 45)
  0 -0.5329E-07  0  0.7503E-07  0 -0.4756E-07  0  0.6132E-07  0 -0.5117E-07
   (  1,  1, 52)  (  1,  4, 49)  (  1,  4, 50)  (  1,  1, 52)  (  1,  4, 49)
  0  0.2942E-07  0  0.2909E-07  0 -0.2076E-07  0  0.1663E-07  0 -0.1968E-07
   (  1,  4, 50)  (  1,  4, 47)  (  1,  4, 50)  (  1,  1, 52)  (  1,  4, 47)
  0  0.2057E-07  1 -0.5009E-06  0  0.5713E-06  0  0.6777E-06  0  0.1825E-06
   (  1,  4, 50)  (  1,  4, 50)  (  1,  4, 50)  (  1,  4, 50)  (  1,  2, 50)
  0 -0.5483E-06  0 -0.2795E-06  0  0.2187E-06  0  0.3136E-06  0  0.2297E-06
   (  1,  4, 50)  (  1,  3, 51)  (  1,  4, 50)  (  1,  4, 50)  (  1,  3, 51)
  0 -0.2041E-06  0 -0.1439E-06  0 -0.6489E-07  0  0.6544E-07  0  0.6245E-07
   (  1,  4, 50)  (  1,  3, 51)  (  1,  3, 51)  (  1,  4, 50)  (  1,  3, 51)
  0 -0.3915E-07  0  0.4559E-07  0 -0.2460E-07  0 -0.4248E-07  0  0.4489E-07
   (  1,  4, 50)  (  1,  3, 50)  (  1,  5, 49)  (  1,  3, 50)  (  1,  3, 51)
  0 -0.2123E-07  1  0.5826E-06  0 -0.3249E-06  0 -0.4922E-06  0 -0.1195E-06
   (  1,  4, 49)  (  1,  4, 50)  (  1,  4, 50)  (  1,  4, 50)  (  1,  3, 51)
  0  0.3395E-06  0  0.1776E-06  0  0.1139E-06  0 -0.2108E-06  0 -0.1645E-06
   (  1,  4, 50)  (  1,  3, 51)  (  1,  2, 50)  (  1,  4, 50)  (  1,  3, 51)
  0  0.1508E-06  0  0.1133E-06  0  0.6324E-07  0 -0.5379E-07  0 -0.4057E-07
   (  1,  4, 50)  (  1,  3, 51)  (  1,  3, 51)  (  1,  4, 50)  (  1,  3, 51)
  1  0.5659E-07  0 -0.1154E-06  0 -0.5505E-07  0 -0.5466E-07  0  0.6964E-07
   (  1,  3, 51)  (  1,  4, 48)  (  1,  4, 45)  (  1,  1, 52)  (  1,  4, 49)
  0 -0.5135E-07  0 -0.6556E-07  0 -0.5416E-07  0  0.2568E-07  0  0.2514E-07
   (  1,  4, 50)  (  1,  4, 48)  (  1,  4, 49)  (  1,  4, 50)  (  1,  4, 47)
  1 -0.5052E-06  0  0.5791E-06  0  0.6854E-06  0  0.1816E-06  0 -0.5280E-06
   (  1,  4, 50)  (  1,  4, 50)  (  1,  4, 50)  (  1,  2, 50)  (  1,  4, 50)
  0 -0.2587E-06  0  0.2217E-06  0  0.3227E-06  0  0.2274E-06  0 -0.2112E-06
   (  1,  3, 51)  (  1,  4, 50)  (  1,  4, 50)  (  1,  3, 51)  (  1,  4, 50)
  0 -0.1497E-06  0 -0.7265E-07  0  0.6250E-07  0  0.5623E-07  0 -0.3211E-07
   (  1,  3, 51)  (  1,  3, 51)  (  1,  4, 50)  (  1,  3, 51)  (  1,  4, 50)
  0  0.4804E-07  0 -0.2921E-07  0 -0.4158E-07  0  0.4055E-07  0  0.2565E-07
   (  1,  3, 50)  (  1,  3, 51)  (  1,  3, 50)  (  1,  3, 51)  (  1,  5, 49)
  1  0.5828E-06  0 -0.3365E-06  0 -0.5050E-06  0 -0.1215E-06  0  0.3456E-06
   (  1,  4, 50)  (  1,  4, 50)  (  1,  4, 50)  (  1,  3, 51)  (  1,  4, 50)
  0  0.1793E-06  0 -0.1173E-06  0 -0.2184E-06  0 -0.1662E-06  0  0.1517E-06
   (  1,  3, 51)  (  1,  4, 50)  (  1,  4, 50)  (  1,  3, 51)  (  1,  4, 50)
  0  0.1118E-06  0  0.6907E-07  0 -0.5430E-07  0 -0.4090E-07  1  0.4723E-07
   (  1,  3, 51)  (  1,  3, 51)  (  1,  4, 50)  (  1,  3, 51)  (  1,  3, 51)
  0 -0.1157E-06  0 -0.5568E-07  0 -0.5631E-07  0  0.7694E-07  0 -0.4945E-07
   (  1,  4, 48)  (  1,  4, 45)  (  1,  1, 52)  (  1,  4, 49)  (  1,  4, 50)
  0 -0.6192E-07  0 -0.4869E-07  0  0.2949E-07  0  0.2908E-07  0 -0.2020E-07
   (  1,  4, 48)  (  1,  4, 49)  (  1,  4, 50)  (  1,  4, 47)  (  1,  4, 50)
  0  0.1563E-07  0 -0.1883E-07  0  0.1933E-07  1 -0.4987E-06  0  0.5767E-06
   (  1,  1, 52)  (  1,  4, 47)  (  1,  4, 50)  (  1,  4, 50)  (  1,  4, 50)
  0  0.6883E-06  0  0.1864E-06  0 -0.5562E-06  0 -0.2813E-06  0  0.2244E-06
   (  1,  4, 50)  (  1,  2, 50)  (  1,  4, 50)  (  1,  3, 51)  (  1,  4, 50)
  0  0.3193E-06  0  0.2344E-06  0 -0.2097E-06  0 -0.1472E-06  0 -0.6629E-07
   (  1,  4, 50)  (  1,  3, 51)  (  1,  4, 50)  (  1,  3, 51)  (  1,  3, 51)
  0  0.6609E-07  0  0.6220E-07  0 -0.3930E-07  0  0.4641E-07  0 -0.2497E-07
   (  1,  4, 50)  (  1,  3, 51)  (  1,  4, 50)  (  1,  3, 50)  (  1,  5, 49)
  0 -0.4226E-07  0  0.4429E-07  0  0.2070E-07  1  0.5839E-06  0 -0.3281E-06
   (  1,  3, 50)  (  1,  3, 51)  (  1,  5, 49)  (  1,  4, 50)  (  1,  4, 50)
  0 -0.4959E-06  0 -0.1197E-06  0  0.3377E-06  0  0.1760E-06  0  0.1137E-06
   (  1,  4, 50)  (  1,  3, 51)  (  1,  4, 50)  (  1,  3, 51)  (  1,  2, 50)
  0 -0.2101E-06  0 -0.1559E-06  0  0.1394E-06  0  0.1199E-06  0  0.8072E-07
   (  1,  4, 50)  (  1,  3, 51)  (  1,  4, 50)  (  1,  4, 50)  (  1,  3, 51)
  0 -0.5162E-07  0 -0.3844E-07  1  0.4694E-07  0 -0.1210E-06  0 -0.5379E-07
   (  1,  4, 50)  (  1,  3, 51)  (  1,  3, 51)  (  1,  4, 48)  (  1,  4, 44)
  0  0.5681E-07  0  0.7131E-07  0 -0.4801E-07  0 -0.6190E-07  0 -0.5397E-07
   (  1,  4, 48)  (  1,  4, 49)  (  1,  4, 50)  (  1,  4, 48)  (  1,  4, 48)
  0  0.2955E-07  0  0.3016E-07  0 -0.2081E-07  0  0.1683E-07  0 -0.1974E-07
   (  1,  4, 50)  (  1,  4, 47)  (  1,  4, 50)  (  1,  1, 52)  (  1,  4, 47)
  0  0.2065E-07  1 -0.4987E-06  0  0.5705E-06  0  0.6780E-06  0  0.1817E-06
   (  1,  4, 50)  (  1,  4, 50)  (  1,  4, 50)  (  1,  4, 50)  (  1,  2, 50)
  0 -0.5499E-06  0 -0.2796E-06  0  0.2217E-06  0  0.3163E-06  0  0.2306E-06
   (  1,  4, 50)  (  1,  3, 51)  (  1,  4, 50)  (  1,  4, 50)  (  1,  3, 51)
  0 -0.2071E-06  0 -0.1452E-06  0 -0.6564E-07  0  0.6564E-07  0  0.6263E-07
   (  1,  4, 50)  (  1,  3, 51)  (  1,  3, 51)  (  1,  4, 50)  (  1,  3, 51)
  0 -0.3788E-07  0  0.4660E-07  0 -0.2510E-07  0 -0.4029E-07  0  0.4214E-07
   (  1,  4, 50)  (  1,  3, 50)  (  1,  5, 49)  (  1,  3, 50)  (  1,  3, 51)
  0  0.2559E-07  1  0.5876E-06  0 -0.3251E-06  0 -0.4927E-06  0 -0.1185E-06
   (  1,  5, 49)  (  1,  4, 50)  (  1,  4, 50)  (  1,  4, 50)  (  1,  3, 51)
  0  0.3391E-06  0  0.1798E-06  0  0.1145E-06  0 -0.2149E-06  0 -0.1626E-06
   (  1,  4, 50)  (  1,  3, 51)  (  1,  2, 50)  (  1,  4, 50)  (  1,  3, 51)
  0  0.1454E-06  0  0.1136E-06  0  0.7775E-07  0 -0.5267E-07  0 -0.3927E-07
   (  1,  4, 50)  (  1,  4, 50)  (  1,  3, 51)  (  1,  4, 50)  (  1,  3, 51)
  1  0.4337E-07  0 -0.1196E-06  0 -0.5599E-07  0 -0.5597E-07  0  0.7517E-07
   (  1,  3, 51)  (  1,  4, 48)  (  1,  4, 45)  (  1,  1, 52)  (  1,  4, 49)
  0 -0.4738E-07  0  0.6307E-07  0 -0.5501E-07  0  0.2825E-07  0  0.2948E-07
   (  1,  4, 50)  (  1,  1, 52)  (  1,  4, 48)  (  1,  4, 50)  (  1,  4, 47)
  0 -0.2068E-07  0  0.1630E-07  0 -0.1926E-07  0  0.2053E-07  1 -0.5023E-06
   (  1,  4, 50)  (  1,  1, 52)  (  1,  4, 47)  (  1,  4, 50)  (  1,  4, 50)
  0  0.5677E-06  0  0.6766E-06  0  0.1825E-06  0 -0.5511E-06  0 -0.2827E-06
   (  1,  4, 50)  (  1,  4, 50)  (  1,  2, 50)  (  1,  4, 50)  (  1,  3, 51)
  0  0.2226E-06  0  0.3171E-06  0  0.2322E-06  0 -0.2084E-06  0 -0.1464E-06
   (  1,  4, 50)  (  1,  4, 50)  (  1,  3, 51)  (  1,  4, 50)  (  1,  3, 51)
  0 -0.6582E-07  0  0.6573E-07  0  0.6334E-07  0 -0.3842E-07  0  0.4554E-07
   (  1,  3, 51)  (  1,  4, 50)  (  1,  3, 51)  (  1,  4, 50)  (  1,  3, 50)
  0 -0.2432E-07  0 -0.4079E-07  0  0.4296E-07  0  0.2339E-07  1  0.5829E-06
   (  1,  5, 49)  (  1,  3, 50)  (  1,  3, 51)  (  1,  5, 49)  (  1,  4, 50)
  0 -0.3351E-06  0 -0.4992E-06  0 -0.1198E-06  0  0.3435E-06  0  0.1793E-06
   (  1,  4, 50)  (  1,  4, 50)  (  1,  3, 51)  (  1,  4, 50)  (  1,  3, 51)
  0  0.1148E-06  0 -0.2155E-06  0 -0.1577E-06  0  0.1418E-06  0  0.1218E-06
   (  1,  2, 50)  (  1,  4, 50)  (  1,  3, 51)  (  1,  4, 50)  (  1,  4, 50)
  0  0.8243E-07  0 -0.5167E-07  0 -0.3906E-07  1 -0.4365E-07  0 -0.1175E-06
   (  1,  3, 51)  (  1,  4, 50)  (  1,  3, 51)  (  1,  4, 49)  (  1,  4, 48)
  0 -0.5863E-07  0  0.5422E-07  0  0.7320E-07  0 -0.4781E-07  0 -0.6554E-07
   (  1,  4, 44)  (  1,  4, 48)  (  1,  4, 49)  (  1,  4, 50)  (  1,  4, 48)
  0 -0.5095E-07  0  0.2964E-07  0  0.2819E-07  0 -0.1911E-07  0  0.1670E-07
   (  1,  4, 48)  (  1,  4, 50)  (  1,  4, 47)  (  1,  4, 50)  (  1,  1, 52)
  0 -0.1959E-07  0  0.2051E-07  1 -0.5021E-06  0  0.5669E-06  0  0.6794E-06
   (  1,  4, 47)  (  1,  4, 50)  (  1,  4, 50)  (  1,  4, 50)  (  1,  4, 50)
  0  0.1814E-06  0 -0.5448E-06  0 -0.2780E-06  0  0.2199E-06  0  0.3168E-06
   (  1,  2, 50)  (  1,  4, 50)  (  1,  3, 51)  (  1,  4, 50)  (  1,  4, 50)
  0  0.2323E-06  0 -0.2064E-06  0 -0.1449E-06  0 -0.6639E-07  0  0.6496E-07
   (  1,  3, 51)  (  1,  4, 50)  (  1,  3, 51)  (  1,  3, 51)  (  1,  4, 50)
  0  0.6202E-07  0 -0.3659E-07  0  0.4680E-07  0 -0.2534E-07  0 -0.3952E-07
   (  1,  3, 51)  (  1,  4, 50)  (  1,  3, 50)  (  1,  3, 51)  (  1,  3, 50)
  0  0.4141E-07  0  0.2584E-07  1  0.5844E-06  0 -0.3292E-06  0 -0.4959E-06
   (  1,  3, 51)  (  1,  5, 49)  (  1,  4, 50)  (  1,  4, 50)  (  1,  4, 50)
  0 -0.1183E-06  0  0.3340E-06  0  0.1751E-06  0 -0.1122E-06  0 -0.2132E-06
   (  1,  3, 51)  (  1,  4, 50)  (  1,  3, 51)  (  1,  4, 50)  (  1,  4, 50)
  0 -0.1613E-06  0  0.1476E-06  0  0.1132E-06  0  0.7674E-07  0 -0.5158E-07
   (  1,  3, 51)  (  1,  4, 50)  (  1,  4, 50)  (  1,  3, 51)  (  1,  4, 50)
  0 -0.3814E-07  1  0.4481E-07  0 -0.1174E-06  0 -0.5215E-07  0  0.5440E-07
   (  1,  3, 51)  (  1,  3, 51)  (  1,  4, 48)  (  1,  4, 45)  (  1,  4, 48)
  0  0.7495E-07  0 -0.4765E-07  0  0.6204E-07  0 -0.5351E-07  0  0.2680E-07
   (  1,  4, 49)  (  1,  4, 50)  (  1,  1, 52)  (  1,  4, 48)  (  1,  4, 50)
  0  0.2651E-07  1 -0.4967E-06  0  0.5843E-06  0  0.6807E-06  0  0.1781E-06
   (  1,  4, 47)  (  1,  4, 50)  (  1,  4, 50)  (  1,  4, 50)  (  1,  2, 50)
  0 -0.5331E-06  0 -0.2619E-06  0  0.2282E-06  0  0.3234E-06  0  0.2279E-06
   (  1,  4, 50)  (  1,  3, 51)  (  1,  4, 50)  (  1,  4, 50)  (  1,  3, 51)
  0 -0.2137E-06  0 -0.1497E-06  0 -0.7553E-07  0  0.6334E-07  0  0.5686E-07
   (  1,  4, 50)  (  1,  3, 51)  (  1,  3, 51)  (  1,  4, 50)  (  1,  3, 51)
  0 -0.3179E-07  0  0.4804E-07  0 -0.2897E-07  0 -0.4099E-07  0  0.4165E-07
   (  1,  4, 50)  (  1,  3, 50)  (  1,  3, 51)  (  1,  3, 50)  (  1,  3, 51)
  0  0.2599E-07  1  0.5876E-06  0 -0.3203E-06  0 -0.4899E-06  0 -0.1181E-06
   (  1,  5, 49)  (  1,  4, 50)  (  1,  4, 50)  (  1,  4, 50)  (  1,  3, 51)
  0  0.3362E-06  0  0.1746E-06  0 -0.1127E-06  0 -0.2111E-06  0 -0.1633E-06
   (  1,  4, 50)  (  1,  3, 51)  (  1,  4, 50)  (  1,  4, 50)  (  1,  3, 51)
  0  0.1505E-06  0  0.1112E-06  0  0.6486E-07  0 -0.5361E-07  0 -0.4084E-07
   (  1,  4, 50)  (  1,  3, 51)  (  1,  3, 51)  (  1,  4, 50)  (  1,  3, 51)
  1  0.5673E-07  0 -0.1216E-06  0 -0.5775E-07  0 -0.5704E-07  0  0.7683E-07
   (  1,  3, 51)  (  1,  4, 48)  (  1,  4, 45)  (  1,  1, 52)  (  1,  4, 49)
  0 -0.5614E-07  0 -0.6409E-07  0 -0.5369E-07  0  0.2766E-07  0  0.2659E-07
   (  1,  4, 50)  (  1,  4, 48)  (  1,  4, 49)  (  1,  4, 50)  (  1,  4, 47)
  1 -0.5044E-06  0  0.5816E-06  0  0.6842E-06  0  0.1819E-06  0 -0.5327E-06
   (  1,  4, 50)  (  1,  4, 50)  (  1,  4, 50)  (  1,  2, 50)  (  1,  4, 50)
  0 -0.2619E-06  0  0.2250E-06  0  0.3250E-06  0  0.2308E-06  0 -0.2159E-06
   (  1,  3, 51)  (  1,  4, 50)  (  1,  4, 50)  (  1,  3, 51)  (  1,  4, 50)
  0 -0.1524E-06  0 -0.7511E-07  0  0.6265E-07  0  0.5609E-07  0 -0.3165E-07
   (  1,  3, 51)  (  1,  3, 51)  (  1,  4, 50)  (  1,  3, 51)  (  1,  4, 50)
  0  0.4824E-07  0 -0.2896E-07  0 -0.4092E-07  0  0.4056E-07  0  0.2581E-07
   (  1,  3, 50)  (  1,  3, 51)  (  1,  3, 50)  (  1,  3, 51)  (  1,  5, 49)
  1  0.5841E-06  0 -0.3295E-06  0 -0.4970E-06  0 -0.1188E-06  0  0.3413E-06
   (  1,  4, 50)  (  1,  4, 50)  (  1,  4, 50)  (  1,  3, 51)  (  1,  4, 50)
  0  0.1777E-06  0 -0.1151E-06  0 -0.2157E-06  0 -0.1648E-06  0  0.1528E-06
   (  1,  3, 51)  (  1,  4, 50)  (  1,  4, 50)  (  1,  3, 51)  (  1,  4, 50)
  0  0.1128E-06  0  0.6719E-07  0 -0.5369E-07  0 -0.4086E-07  1  0.4952E-07
   (  1,  3, 51)  (  1,  3, 51)  (  1,  4, 50)  (  1,  3, 51)  (  1,  3, 51)
  0 -0.1176E-06  0 -0.5631E-07  0 -0.5604E-07  0  0.7685E-07  0 -0.5187E-07
   (  1,  4, 48)  (  1,  4, 45)  (  1,  1, 52)  (  1,  4, 49)  (  1,  4, 50)
  0 -0.6494E-07  0 -0.5146E-07  0  0.2863E-07  0  0.2676E-07  0 -0.1949E-07
   (  1,  4, 48)  (  1,  4, 49)  (  1,  4, 50)  (  1,  4, 47)  (  1,  4, 50)
  0  0.1524E-07  0 -0.1901E-07  0  0.1798E-07  1 -0.5043E-06  0  0.5692E-06
   (  1,  1, 52)  (  1,  4, 47)  (  1,  4, 50)  (  1,  4, 50)  (  1,  4, 50)
  0  0.6768E-06  0  0.1809E-06  0 -0.5464E-06  0 -0.2808E-06  0  0.2211E-06
   (  1,  4, 50)  (  1,  2, 50)  (  1,  4, 50)  (  1,  3, 51)  (  1,  4, 50)
  0  0.3146E-06  0  0.2314E-06  0 -0.2039E-06  0 -0.1445E-06  0 -0.6500E-07
   (  1,  4, 50)  (  1,  3, 51)  (  1,  4, 50)  (  1,  3, 51)  (  1,  3, 51)
  0  0.6626E-07  0  0.6268E-07  0 -0.3863E-07  0  0.4521E-07  0 -0.2432E-07
   (  1,  4, 50)  (  1,  3, 51)  (  1,  4, 50)  (  1,  3, 50)  (  1,  5, 49)
  0 -0.4167E-07  0  0.4405E-07  0 -0.2067E-07  1  0.5829E-06  0 -0.3258E-06
   (  1,  3, 50)  (  1,  3, 51)  (  1,  4, 49)  (  1,  4, 50)  (  1,  4, 50)
  0 -0.4923E-06  0 -0.1187E-06  0  0.3388E-06  0  0.1756E-06  0  0.1148E-06
   (  1,  4, 50)  (  1,  3, 51)  (  1,  4, 50)  (  1,  3, 51)  (  1,  2, 50)
  0 -0.2129E-06  0 -0.1567E-06  0  0.1399E-06  0  0.1221E-06  0  0.8140E-07
   (  1,  4, 50)  (  1,  3, 51)  (  1,  4, 50)  (  1,  4, 50)  (  1,  3, 51)
  0 -0.5174E-07  0 -0.3849E-07  1  0.4406E-07  0 -0.1209E-06  0 -0.5638E-07
   (  1,  4, 50)  (  1,  3, 51)  (  1,  3, 51)  (  1,  4, 48)  (  1,  4, 44)
  0  0.5316E-07  0  0.7059E-07  0 -0.4862E-07  0 -0.6169E-07  0 -0.4847E-07
   (  1,  4, 48)  (  1,  4, 49)  (  1,  4, 50)  (  1,  4, 49)  (  1,  4, 48)
  0  0.3039E-07  0  0.2654E-07  1 -0.5022E-06  0  0.5874E-06  0  0.6835E-06
   (  1,  4, 50)  (  1,  4, 47)  (  1,  4, 50)  (  1,  4, 50)  (  1,  4, 50)
  0  0.1804E-06  0 -0.5320E-06  0 -0.2602E-06  0  0.2229E-06  0  0.3217E-06
   (  1,  2, 50)  (  1,  4, 50)  (  1,  3, 51)  (  1,  4, 50)  (  1,  4, 50)
  0  0.2265E-06  0 -0.2126E-06  0 -0.1472E-06  0 -0.8269E-07  0  0.6063E-07
   (  1,  3, 51)  (  1,  4, 50)  (  1,  3, 51)  (  1,  3, 51)  (  1,  4, 50)
  0  0.5499E-07  0 -0.3087E-07  0  0.4908E-07  0 -0.2982E-07  0 -0.4138E-07
   (  1,  3, 51)  (  1,  4, 50)  (  1,  3, 50)  (  1,  3, 51)  (  1,  3, 50)
  0  0.4108E-07  0  0.2577E-07  1  0.5845E-06  0 -0.3373E-06  0 -0.5071E-06
   (  1,  3, 51)  (  1,  5, 49)  (  1,  4, 50)  (  1,  4, 50)  (  1,  4, 50)
  0 -0.1220E-06  0  0.3469E-06  0  0.1802E-06  0 -0.1146E-06  0 -0.2137E-06
   (  1,  3, 51)  (  1,  4, 50)  (  1,  3, 51)  (  1,  4, 50)  (  1,  4, 50)
  0 -0.1642E-06  0  0.1513E-06  0  0.1118E-06  0  0.6723E-07  0 -0.5347E-07
   (  1,  3, 51)  (  1,  4, 50)  (  1,  3, 51)  (  1,  3, 51)  (  1,  4, 50)
  0 -0.4101E-07  1  0.5080E-07  0 -0.1190E-06  0 -0.5655E-07  0 -0.5794E-07
   (  1,  3, 51)  (  1,  3, 51)  (  1,  4, 48)  (  1,  4, 45)  (  1,  1, 52)
  0  0.7723E-07  0 -0.5158E-07  0 -0.6533E-07  0 -0.5379E-07  0  0.2842E-07
   (  1,  4, 49)  (  1,  4, 50)  (  1,  4, 48)  (  1,  4, 49)  (  1,  4, 50)
  0  0.3035E-07  0 -0.2097E-07  0  0.1670E-07  0 -0.1982E-07  0  0.1850E-07
   (  1,  4, 47)  (  1,  4, 50)  (  1,  1, 52)  (  1,  4, 47)  (  1,  4, 50)
  1 -0.5045E-06  0  0.5731E-06  0  0.6899E-06  0  0.1835E-06  0 -0.5466E-06
   (  1,  4, 50)  (  1,  4, 50)  (  1,  4, 50)  (  1,  2, 50)  (  1,  4, 50)
  0 -0.2809E-06  0  0.2204E-06  0  0.3171E-06  0  0.2350E-06  0 -0.2097E-06
   (  1,  3, 51)  (  1,  4, 50)  (  1,  4, 50)  (  1,  3, 51)  (  1,  4, 50)
  0 -0.1468E-06  0 -0.6879E-07  0  0.6473E-07  0  0.6076E-07  0 -0.3434E-07
   (  1,  3, 51)  (  1,  3, 51)  (  1,  4, 50)  (  1,  3, 51)  (  1,  4, 50)
  0  0.4824E-07  0 -0.2752E-07  0 -0.3933E-07  0  0.4096E-07  0  0.2602E-07
   (  1,  3, 50)  (  1,  3, 51)  (  1,  3, 50)  (  1,  3, 51)  (  1,  5, 49)
  1  0.5865E-06  0 -0.3289E-06  0 -0.4988E-06  0 -0.1196E-06  0  0.3337E-06
   (  1,  4, 50)  (  1,  4, 50)  (  1,  4, 50)  (  1,  3, 51)  (  1,  4, 50)
  0  0.1760E-06  0  0.1125E-06  0 -0.2121E-06  0 -0.1632E-06  0  0.1500E-06
   (  1,  3, 51)  (  1,  2, 50)  (  1,  4, 50)  (  1,  3, 51)  (  1,  4, 50)
  0  0.1108E-06  0  0.7140E-07  0 -0.5207E-07  0 -0.3865E-07  1  0.4374E-07
   (  1,  3, 51)  (  1,  3, 51)  (  1,  4, 50)  (  1,  3, 51)  (  1,  3, 51)
  0 -0.1136E-06  0 -0.5630E-07  0 -0.5514E-07  0  0.7834E-07  0 -0.4661E-07
   (  1,  4, 48)  (  1,  4, 45)  (  1,  1, 52)  (  1,  4, 49)  (  1,  4, 50)
  0 -0.6113E-07  0 -0.4864E-07  0  0.2763E-07  0  0.2723E-07  0 -0.1822E-07
   (  1,  4, 48)  (  1,  4, 48)  (  1,  4, 50)  (  1,  4, 47)  (  1,  4, 50)
  1 -0.5179E-06  0  0.5716E-06  0  0.6755E-06  0  0.1831E-06  0 -0.5395E-06
   (  1,  4, 50)  (  1,  4, 50)  (  1,  4, 50)  (  1,  2, 50)  (  1,  4, 50)
  0 -0.2723E-06  0  0.2113E-06  0  0.3113E-06  0  0.2360E-06  0 -0.2098E-06
   (  1,  3, 51)  (  1,  4, 50)  (  1,  4, 50)  (  1,  3, 51)  (  1,  4, 50)
  0 -0.1475E-06  0 -0.6906E-07  0  0.6212E-07  0  0.5739E-07  0 -0.3631E-07
   (  1,  3, 51)  (  1,  3, 51)  (  1,  4, 50)  (  1,  3, 51)  (  1,  4, 50)
  0  0.4720E-07  0 -0.2659E-07  0 -0.4084E-07  0  0.3927E-07  0  0.2463E-07
   (  1,  3, 50)  (  1,  3, 51)  (  1,  3, 50)  (  1,  3, 51)  (  1,  5, 49)
  1  0.5897E-06  0 -0.3191E-06  0 -0.4925E-06  0 -0.1198E-06  0  0.3318E-06
   (  1,  4, 50)  (  1,  4, 50)  (  1,  4, 50)  (  1,  3, 51)  (  1,  4, 50)
  0  0.1741E-06  0  0.1115E-06  0 -0.2082E-06  0 -0.1593E-06  0  0.1433E-06
   (  1,  3, 51)  (  1,  2, 50)  (  1,  4, 50)  (  1,  3, 51)  (  1,  4, 50)
  0  0.1091E-06  0  0.7377E-07  0 -0.5130E-07  0 -0.3850E-07  1  0.4316E-07
   (  1,  4, 50)  (  1,  3, 51)  (  1,  4, 50)  (  1,  3, 51)  (  1,  3, 51)
  0 -0.1200E-06  0 -0.5738E-07  0 -0.5519E-07  0  0.7887E-07  0 -0.5014E-07
   (  1,  4, 48)  (  1,  4, 45)  (  1,  1, 52)  (  1,  4, 49)  (  1,  4, 50)
  0  0.6625E-07  0 -0.5316E-07  0  0.2841E-07  0  0.2766E-07  0 -0.1928E-07
   (  1,  1, 52)  (  1,  4, 48)  (  1,  4, 50)  (  1,  4, 47)  (  1,  4, 50)
  1 -0.5160E-06  0  0.5751E-06  0  0.6682E-06  0  0.1813E-06  0 -0.5380E-06
   (  1,  4, 50)  (  1,  4, 50)  (  1,  4, 50)  (  1,  2, 50)  (  1,  4, 50)
  0 -0.2724E-06  0  0.2134E-06  0  0.3151E-06  0  0.2351E-06  0 -0.2136E-06
   (  1,  3, 51)  (  1,  4, 50)  (  1,  4, 50)  (  1,  3, 51)  (  1,  4, 50)
  0 -0.1491E-06  0 -0.7368E-07  0  0.6122E-07  0  0.5642E-07  0 -0.3147E-07
   (  1,  3, 51)  (  1,  3, 51)  (  1,  4, 50)  (  1,  3, 51)  (  1,  4, 50)
  0  0.4771E-07  0 -0.2911E-07  0 -0.4011E-07  0  0.3895E-07  0  0.2537E-07
   (  1,  3, 50)  (  1,  3, 51)  (  1,  3, 50)  (  1,  3, 51)  (  1,  5, 49)
  1  0.5833E-06  0 -0.3401E-06  0 -0.5050E-06  0 -0.1212E-06  0  0.3475E-06
   (  1,  4, 50)  (  1,  4, 50)  (  1,  4, 50)  (  1,  3, 51)  (  1,  4, 50)
  0  0.1835E-06  0 -0.1178E-06  0 -0.2198E-06  0 -0.1689E-06  0  0.1556E-06
   (  1,  3, 51)  (  1,  4, 50)  (  1,  4, 50)  (  1,  3, 51)  (  1,  4, 50)
  0  0.1156E-06  0  0.6743E-07  0 -0.5466E-07  0 -0.4192E-07  1  0.5314E-07
   (  1,  3, 51)  (  1,  3, 51)  (  1,  4, 50)  (  1,  3, 51)  (  1,  3, 51)
  0 -0.1138E-06  0 -0.5142E-07  0 -0.6013E-07  0  0.7663E-07  0 -0.5246E-07
   (  1,  4, 48)  (  1,  4, 45)  (  1,  1, 52)  (  1,  4, 49)  (  1,  4, 50)
  0 -0.6791E-07  0 -0.5421E-07  0  0.2493E-07  0  0.2747E-07  1 -0.4979E-06
   (  1,  4, 48)  (  1,  4, 49)  (  1,  4, 50)  (  1,  4, 47)  (  1,  4, 50)
  0  0.5875E-06  0  0.6843E-06  0  0.1820E-06  0 -0.5319E-06  0 -0.2596E-06
   (  1,  4, 50)  (  1,  4, 50)  (  1,  2, 50)  (  1,  4, 50)  (  1,  3, 51)
  0  0.2279E-06  0  0.3247E-06  0  0.2272E-06  0 -0.2170E-06  0 -0.1527E-06
   (  1,  4, 50)  (  1,  4, 50)  (  1,  3, 51)  (  1,  4, 50)  (  1,  3, 51)
  0 -0.7024E-07  0  0.6319E-07  0  0.5747E-07  0 -0.3374E-07  0  0.4786E-07
   (  1,  3, 51)  (  1,  4, 50)  (  1,  3, 51)  (  1,  4, 50)  (  1,  3, 50)
  0 -0.2893E-07  0 -0.4188E-07  0  0.4105E-07  0  0.2555E-07  1  0.5860E-06
   (  1,  3, 51)  (  1,  3, 50)  (  1,  3, 51)  (  1,  5, 49)  (  1,  4, 50)
  0 -0.3300E-06  0 -0.4982E-06  0 -0.1202E-06  0  0.3407E-06  0  0.1779E-06
   (  1,  4, 50)  (  1,  4, 50)  (  1,  3, 51)  (  1,  4, 50)  (  1,  3, 51)
  0 -0.1127E-06  0 -0.2122E-06  0 -0.1640E-06  0  0.1519E-06  0  0.1115E-06
   (  1,  4, 50)  (  1,  4, 50)  (  1,  3, 51)  (  1,  4, 50)  (  1,  3, 51)
  0  0.6899E-07  0 -0.5233E-07  0 -0.3989E-07  1  0.4901E-07  0 -0.1186E-06
   (  1,  3, 51)  (  1,  4, 50)  (  1,  3, 51)  (  1,  3, 51)  (  1,  4, 48)
  0 -0.5598E-07  0 -0.5792E-07  0  0.7995E-07  0 -0.5168E-07  0 -0.6563E-07
   (  1,  4, 45)  (  1,  1, 52)  (  1,  4, 49)  (  1,  4, 50)  (  1,  4, 48)
  0 -0.5237E-07  0  0.2755E-07  0  0.2753E-07  0 -0.1984E-07  0  0.1583E-07
   (  1,  4, 49)  (  1,  4, 50)  (  1,  4, 47)  (  1,  4, 50)  (  1,  1, 52)
  1 -0.5131E-06  0  0.5650E-06  0  0.7026E-06  0  0.1785E-06  0 -0.5510E-06
   (  1,  4, 50)  (  1,  4, 50)  (  1,  4, 50)  (  1,  2, 50)  (  1,  4, 50)
  0 -0.2842E-06  0  0.2019E-06  0  0.3189E-06  0  0.2441E-06  0 -0.2056E-06
   (  1,  3, 51)  (  1,  4, 50)  (  1,  4, 50)  (  1,  3, 51)  (  1,  4, 50)
  0 -0.1471E-06  0 -0.7231E-07  0  0.6380E-07  0  0.6037E-07  0 -0.3381E-07
   (  1,  3, 51)  (  1,  3, 51)  (  1,  4, 50)  (  1,  3, 51)  (  1,  4, 50)
  0  0.4768E-07  0 -0.2716E-07  0 -0.3902E-07  0  0.3918E-07  0  0.2521E-07
   (  1,  3, 50)  (  1,  3, 51)  (  1,  3, 50)  (  1,  3, 51)  (  1,  5, 49)
  1  0.5883E-06  0 -0.3247E-06  0 -0.4960E-06  0 -0.1205E-06  0  0.3405E-06
   (  1,  4, 50)  (  1,  4, 50)  (  1,  4, 50)  (  1,  3, 51)  (  1,  4, 50)
  0  0.1818E-06  0  0.1159E-06  0 -0.2161E-06  0 -0.1638E-06  0  0.1483E-06
   (  1,  3, 51)  (  1,  2, 50)  (  1,  4, 50)  (  1,  3, 51)  (  1,  4, 50)
  0  0.1112E-06  0  0.7471E-07  0 -0.5332E-07  0 -0.4025E-07  1  0.4603E-07
   (  1,  4, 50)  (  1,  3, 51)  (  1,  4, 50)  (  1,  3, 51)  (  1,  3, 51)
  0 -0.1207E-06  0 -0.5503E-07  0 -0.5497E-07  0  0.7593E-07  0 -0.4928E-07
   (  1,  4, 48)  (  1,  4, 45)  (  1,  1, 52)  (  1,  4, 49)  (  1,  4, 50)
  0 -0.6190E-07  0 -0.5173E-07  0  0.2920E-07  0  0.2745E-07  0 -0.2098E-07
   (  1,  4, 49)  (  1,  4, 48)  (  1,  4, 50)  (  1,  4, 47)  (  1,  4, 50)
  1 -0.5188E-06  0  0.5710E-06  0  0.6688E-06  0  0.1807E-06  0 -0.5363E-06
   (  1,  4, 50)  (  1,  4, 50)  (  1,  4, 50)  (  1,  2, 50)  (  1,  4, 50)
  0 -0.2705E-06  0  0.2108E-06  0  0.3100E-06  0  0.2320E-06  0 -0.2058E-06
   (  1,  3, 51)  (  1,  4, 50)  (  1,  4, 50)  (  1,  3, 51)  (  1,  4, 50)
  0 -0.1455E-06  0 -0.6883E-07  0  0.6233E-07  0  0.5741E-07  0 -0.3491E-07
   (  1,  3, 51)  (  1,  3, 51)  (  1,  4, 50)  (  1,  3, 51)  (  1,  4, 50)
  0  0.4728E-07  0 -0.2794E-07  0 -0.4089E-07  0  0.3926E-07  0  0.2509E-07
   (  1,  3, 50)  (  1,  3, 51)  (  1,  3, 50)  (  1,  3, 51)  (  1,  5, 49)
  1  0.5844E-06  0 -0.3306E-06  0 -0.4923E-06  0 -0.1179E-06  0  0.3352E-06
   (  1,  4, 50)  (  1,  4, 50)  (  1,  4, 50)  (  1,  3, 51)  (  1,  4, 50)
  0  0.1755E-06  0 -0.1122E-06  0 -0.2121E-06  0 -0.1603E-06  0  0.1442E-06
   (  1,  3, 51)  (  1,  4, 50)  (  1,  4, 50)  (  1,  3, 51)  (  1,  4, 50)
  0  0.1069E-06  0  0.7130E-07  0 -0.5231E-07  0 -0.3926E-07  1  0.4173E-07
   (  1,  4, 50)  (  1,  3, 51)  (  1,  4, 50)  (  1,  3, 51)  (  1,  3, 51)
  0 -0.1143E-06  0 -0.5825E-07  0 -0.5380E-07  0  0.7617E-07  0 -0.4806E-07
   (  1,  4, 48)  (  1,  4, 45)  (  1,  1, 52)  (  1,  4, 49)  (  1,  4, 50)
  0  0.6320E-07  0 -0.5260E-07  0  0.2679E-07  0  0.2730E-07  0 -0.1819E-07
   (  1,  1, 52)  (  1,  4, 48)  (  1,  4, 50)  (  1,  4, 47)  (  1,  4, 50)
  1 -0.5154E-06  0  0.5786E-06  0  0.6807E-06  0  0.1832E-06  0 -0.5364E-06
   (  1,  4, 50)  (  1,  4, 50)  (  1,  4, 50)  (  1,  2, 50)  (  1,  4, 50)
  0 -0.2690E-06  0  0.2141E-06  0  0.3157E-06  0  0.2337E-06  0 -0.2101E-06
   (  1,  3, 51)  (  1,  4, 50)  (  1,  4, 50)  (  1,  3, 51)  (  1,  4, 50)
  0 -0.1484E-06  0 -0.6926E-07  0  0.6249E-07  0  0.5794E-07  0 -0.3612E-07
   (  1,  3, 51)  (  1,  3, 51)  (  1,  4, 50)  (  1,  3, 51)  (  1,  4, 50)
  0  0.4671E-07  0 -0.2685E-07  0 -0.4181E-07  0  0.3952E-07  0  0.2465E-07
   (  1,  3, 50)  (  1,  3, 51)  (  1,  3, 50)  (  1,  3, 51)  (  1,  5, 49)
  1  0.5836E-06  0 -0.3353E-06  0 -0.5012E-06  0 -0.1198E-06  0  0.3393E-06
   (  1,  4, 50)  (  1,  4, 50)  (  1,  4, 50)  (  1,  3, 51)  (  1,  4, 50)
  0  0.1779E-06  0 -0.1143E-06  0 -0.2140E-06  0 -0.1607E-06  0  0.1436E-06
   (  1,  3, 51)  (  1,  4, 50)  (  1,  4, 50)  (  1,  3, 51)  (  1,  4, 50)
  0  0.1129E-06  0  0.7672E-07  0 -0.5292E-07  0 -0.3959E-07  1 -0.4520E-07
   (  1,  4, 50)  (  1,  3, 51)  (  1,  4, 50)  (  1,  3, 51)  (  1,  4, 49)
  0 -0.1198E-06  0 -0.5763E-07  0  0.5793E-07  0  0.7658E-07  0 -0.4986E-07
   (  1,  4, 48)  (  1,  4, 44)  (  1,  4, 48)  (  1,  4, 49)  (  1,  4, 50)
  0 -0.6515E-07  0 -0.5539E-07  0  0.2798E-07  0  0.2990E-07  0 -0.2064E-07
   (  1,  4, 48)  (  1,  4, 48)  (  1,  4, 50)  (  1,  4, 47)  (  1,  4, 50)
  0  0.1684E-07  0 -0.1926E-07  0  0.1982E-07  1 -0.5035E-06  0  0.5656E-06
   (  1,  1, 52)  (  1,  4, 47)  (  1,  4, 50)  (  1,  4, 50)  (  1,  4, 50)
  0  0.6869E-06  0  0.1837E-06  0 -0.5547E-06  0 -0.2829E-06  0  0.2225E-06
   (  1,  4, 50)  (  1,  2, 50)  (  1,  4, 50)  (  1,  3, 51)  (  1,  4, 50)
  0  0.3162E-06  0  0.2348E-06  0 -0.2089E-06  0 -0.1460E-06  0 -0.6734E-07
   (  1,  4, 50)  (  1,  3, 51)  (  1,  4, 50)  (  1,  3, 51)  (  1,  3, 51)
  0  0.6553E-07  0  0.6191E-07  0 -0.3650E-07  0  0.4873E-07  0 -0.2682E-07
   (  1,  4, 50)  (  1,  3, 51)  (  1,  4, 50)  (  1,  3, 50)  (  1,  3, 51)
  0 -0.3896E-07  0  0.4095E-07  0  0.2583E-07  1  0.5900E-06  0 -0.3201E-06
   (  1,  3, 50)  (  1,  3, 51)  (  1,  5, 49)  (  1,  4, 50)  (  1,  4, 50)
  0 -0.4948E-06  0 -0.1207E-06  0  0.3396E-06  0  0.1795E-06  0  0.1148E-06
   (  1,  4, 50)  (  1,  3, 51)  (  1,  4, 50)  (  1,  3, 51)  (  1,  2, 50)
  0 -0.2125E-06  0 -0.1628E-06  0  0.1468E-06  0  0.1096E-06  0  0.7394E-07
   (  1,  4, 50)  (  1,  3, 51)  (  1,  4, 50)  (  1,  4, 50)  (  1,  3, 51)
  0 -0.5250E-07  0 -0.3933E-07  1  0.4713E-07  0 -0.1223E-06  0 -0.5629E-07
   (  1,  4, 50)  (  1,  3, 51)  (  1,  3, 51)  (  1,  4, 48)  (  1,  4, 45)
  0 -0.5597E-07  0  0.7543E-07  0 -0.4958E-07  0  0.6245E-07  0 -0.5138E-07
   (  1,  1, 52)  (  1,  4, 49)  (  1,  4, 50)  (  1,  1, 52)  (  1,  4, 48)
  0  0.2871E-07  0  0.2984E-07  0 -0.2140E-07  0  0.1598E-07  0 -0.1913E-07
   (  1,  4, 50)  (  1,  4, 47)  (  1,  4, 50)  (  1,  1, 52)  (  1,  4, 47)
  0  0.2046E-07  1 -0.5013E-06  0  0.5718E-06  0  0.6883E-06  0  0.1837E-06
   (  1,  4, 50)  (  1,  4, 50)  (  1,  4, 50)  (  1,  4, 50)  (  1,  2, 50)
  0 -0.5502E-06  0 -0.2827E-06  0  0.2240E-06  0  0.3171E-06  0  0.2328E-06
   (  1,  4, 50)  (  1,  3, 51)  (  1,  4, 50)  (  1,  4, 50)  (  1,  3, 51)
  0 -0.2095E-06  0 -0.1466E-06  0 -0.6720E-07  0  0.6562E-07  0  0.6240E-07
   (  1,  4, 50)  (  1,  3, 51)  (  1,  3, 51)  (  1,  4, 50)  (  1,  3, 51)
  0 -0.3608E-07  0  0.4772E-07  0 -0.2668E-07  0 -0.3974E-07  0  0.4133E-07
   (  1,  4, 50)  (  1,  3, 50)  (  1,  3, 51)  (  1,  3, 50)  (  1,  3, 51)
  0  0.2581E-07  1  0.5844E-06  0 -0.3325E-06  0 -0.5048E-06  0 -0.1214E-06
   (  1,  5, 49)  (  1,  4, 50)  (  1,  4, 50)  (  1,  4, 50)  (  1,  3, 51)
  0  0.3427E-06  0  0.1796E-06  0  0.1146E-06  0 -0.2155E-06  0 -0.1637E-06
   (  1,  4, 50)  (  1,  3, 51)  (  1,  2, 50)  (  1,  4, 50)  (  1,  3, 51)
  0  0.1495E-06  0  0.1139E-06  0  0.7713E-07  0 -0.5224E-07  0 -0.3886E-07
   (  1,  4, 50)  (  1,  4, 50)  (  1,  3, 51)  (  1,  4, 50)  (  1,  3, 51)
  1 -0.4477E-07  0 -0.1213E-06  0 -0.5832E-07  0 -0.5511E-07  0  0.7670E-07
   (  1,  4, 49)  (  1,  4, 48)  (  1,  4, 44)  (  1,  1, 52)  (  1,  4, 49)
  0 -0.4844E-07  0 -0.6413E-07  0 -0.5277E-07  0  0.2953E-07  0  0.2778E-07
   (  1,  4, 50)  (  1,  4, 48)  (  1,  4, 48)  (  1,  4, 50)  (  1,  4, 47)
  0 -0.1990E-07  0  0.1702E-07  0 -0.1995E-07  0  0.1956E-07  1 -0.5075E-06
   (  1,  4, 50)  (  1,  1, 52)  (  1,  4, 47)  (  1,  4, 50)  (  1,  4, 50)
  0  0.5606E-06  0  0.6776E-06  0  0.1816E-06  0 -0.5481E-06  0 -0.2825E-06
   (  1,  4, 50)  (  1,  4, 50)  (  1,  2, 50)  (  1,  4, 50)  (  1,  3, 51)
  0  0.2191E-06  0  0.3158E-06  0  0.2349E-06  0 -0.2042E-06  0 -0.1449E-06
   (  1,  4, 50)  (  1,  4, 50)  (  1,  3, 51)  (  1,  4, 50)  (  1,  3, 51)
  0 -0.6601E-07  0  0.6563E-07  0  0.6191E-07  0 -0.3722E-07  0  0.4665E-07
   (  1,  3, 51)  (  1,  4, 50)  (  1,  3, 51)  (  1,  4, 50)  (  1,  3, 50)
  0 -0.2475E-07  0 -0.3881E-07  0  0.4079E-07  0  0.2541E-07  1  0.5899E-06
   (  1,  5, 49)  (  1,  3, 50)  (  1,  3, 51)  (  1,  5, 49)  (  1,  4, 50)
  0 -0.3241E-06  0 -0.4940E-06  0 -0.1199E-06  0  0.3373E-06  0  0.1793E-06
   (  1,  4, 50)  (  1,  4, 50)  (  1,  3, 51)  (  1,  4, 50)  (  1,  3, 51)
  0  0.1146E-06  0 -0.2115E-06  0 -0.1604E-06  0  0.1400E-06  0  0.1127E-06
   (  1,  2, 50)  (  1,  4, 50)  (  1,  3, 51)  (  1,  4, 50)  (  1,  4, 50)
  0  0.7777E-07  0 -0.5230E-07  0 -0.3909E-07  1  0.4414E-07  0 -0.1190E-06
   (  1,  3, 51)  (  1,  4, 50)  (  1,  3, 51)  (  1,  3, 51)  (  1,  4, 48)
  0 -0.5575E-07  0 -0.5497E-07  0  0.7357E-07  0 -0.4911E-07  0 -0.6228E-07
   (  1,  4, 44)  (  1,  1, 52)  (  1,  4, 49)  (  1,  4, 50)  (  1,  4, 48)
  0 -0.5206E-07  0  0.2846E-07  0  0.2862E-07  0 -0.1960E-07  0  0.1560E-07
   (  1,  4, 48)  (  1,  4, 50)  (  1,  4, 47)  (  1,  4, 50)  (  1,  1, 52)
  1 -0.5098E-06  0  0.5670E-06  0  0.7021E-06  0  0.1785E-06  0 -0.5517E-06
   (  1,  4, 50)  (  1,  4, 50)  (  1,  4, 50)  (  1,  2, 50)  (  1,  4, 50)
  0 -0.2835E-06  0  0.2022E-06  0  0.3146E-06  0  0.2409E-06  0 -0.2045E-06
   (  1,  3, 51)  (  1,  4, 50)  (  1,  4, 50)  (  1,  3, 51)  (  1,  4, 50)
  0 -0.1458E-06  0 -0.7315E-07  0  0.6279E-07  0  0.5986E-07  0 -0.3228E-07
   (  1,  3, 51)  (  1,  3, 51)  (  1,  4, 50)  (  1,  3, 51)  (  1,  4, 50)
  0  0.4900E-07  0 -0.2862E-07  0 -0.3942E-07  0  0.3936E-07  0  0.2541E-07
   (  1,  3, 50)  (  1,  3, 51)  (  1,  3, 50)  (  1,  3, 51)  (  1,  5, 49)
  1  0.5875E-06  0 -0.3227E-06  0 -0.4901E-06  0 -0.1185E-06  0  0.3322E-06
   (  1,  4, 50)  (  1,  4, 50)  (  1,  4, 50)  (  1,  3, 51)  (  1,  4, 50)
  0  0.1744E-06  0  0.1118E-06  0 -0.2137E-06  0 -0.1628E-06  0  0.1476E-06
   (  1,  3, 51)  (  1,  2, 50)  (  1,  4, 50)  (  1,  3, 51)  (  1,  4, 50)
  0  0.1092E-06  0  0.6970E-07  0 -0.5305E-07  0 -0.3929E-07  1  0.4765E-07
   (  1,  3, 51)  (  1,  3, 51)  (  1,  4, 50)  (  1,  3, 51)  (  1,  3, 51)
  0 -0.1182E-06  0 -0.5542E-07  0 -0.5806E-07  0  0.8042E-07  0 -0.5277E-07
   (  1,  4, 48)  (  1,  4, 45)  (  1,  1, 52)  (  1,  4, 49)  (  1,  4, 50)
  0 -0.6534E-07  0 -0.4960E-07  0  0.2770E-07  0  0.2597E-07  1 -0.5004E-06
   (  1,  4, 48)  (  1,  4, 49)  (  1,  4, 50)  (  1,  4, 47)  (  1,  4, 50)
  0  0.5871E-06  0  0.6860E-06  0  0.1827E-06  0 -0.5382E-06  0 -0.2629E-06
   (  1,  4, 50)  (  1,  4, 50)  (  1,  2, 50)  (  1,  4, 50)  (  1,  3, 51)
  0  0.2304E-06  0  0.3259E-06  0  0.2286E-06  0 -0.2151E-06  0 -0.1516E-06
   (  1,  4, 50)  (  1,  4, 50)  (  1,  3, 51)  (  1,  4, 50)  (  1,  3, 51)
  0 -0.7020E-07  0  0.6443E-07  0  0.5796E-07  0 -0.3414E-07  0  0.4865E-07
   (  1,  3, 51)  (  1,  4, 50)  (  1,  3, 51)  (  1,  4, 50)  (  1,  3, 50)
  0 -0.2919E-07  0 -0.4180E-07  0  0.4113E-07  0  0.2567E-07  1  0.5844E-06
   (  1,  3, 51)  (  1,  3, 50)  (  1,  3, 51)  (  1,  5, 49)  (  1,  4, 50)
  0 -0.3327E-06  0 -0.5022E-06  0 -0.1205E-06  0  0.3425E-06  0  0.1782E-06
   (  1,  4, 50)  (  1,  4, 50)  (  1,  3, 51)  (  1,  4, 50)  (  1,  3, 51)
  0 -0.1163E-06  0 -0.2159E-06  0 -0.1625E-06  0  0.1489E-06  0  0.1094E-06
   (  1,  4, 50)  (  1,  4, 50)  (  1,  3, 51)  (  1,  4, 50)  (  1,  3, 51)
  0  0.7121E-07  0 -0.5368E-07  0 -0.4057E-07  1  0.4672E-07  0 -0.1174E-06
   (  1,  3, 51)  (  1,  4, 50)  (  1,  3, 51)  (  1,  3, 51)  (  1,  4, 48)
  0 -0.5435E-07  0 -0.5653E-07  0  0.8075E-07  0 -0.5082E-07  0  0.6241E-07
   (  1,  4, 45)  (  1,  1, 52)  (  1,  4, 49)  (  1,  4, 50)  (  1,  1, 52)
  0 -0.5145E-07  0  0.2909E-07  0  0.2822E-07  0 -0.2005E-07  0  0.1532E-07
   (  1,  4, 48)  (  1,  4, 50)  (  1,  4, 47)  (  1,  4, 50)  (  1,  1, 52)
  0 -0.1899E-07  0  0.2004E-07  1 -0.5020E-06  0  0.5705E-06  0  0.6803E-06
   (  1,  4, 47)  (  1,  4, 50)  (  1,  4, 50)  (  1,  4, 50)  (  1,  4, 50)
  0  0.1828E-06  0 -0.5502E-06  0 -0.2803E-06  0  0.2208E-06  0  0.3164E-06
   (  1,  2, 50)  (  1,  4, 50)  (  1,  3, 51)  (  1,  4, 50)  (  1,  4, 50)
  0  0.2315E-06  0 -0.2083E-06  0 -0.1458E-06  0 -0.6659E-07  0  0.6511E-07
   (  1,  3, 51)  (  1,  4, 50)  (  1,  3, 51)  (  1,  3, 51)  (  1,  4, 50)
  0  0.6249E-07  0 -0.3736E-07  0  0.4713E-07  0 -0.2530E-07  0 -0.3976E-07
   (  1,  3, 51)  (  1,  4, 50)  (  1,  3, 50)  (  1,  5, 49)  (  1,  3, 50)
  0  0.4167E-07  0  0.2571E-07  1  0.5844E-06  0 -0.3367E-06  0 -0.5051E-06
   (  1,  3, 51)  (  1,  5, 49)  (  1,  4, 50)  (  1,  4, 50)  (  1,  4, 50)
  0 -0.1215E-06  0  0.3433E-06  0  0.1797E-06  0 -0.1142E-06  0 -0.2141E-06
   (  1,  3, 51)  (  1,  4, 50)  (  1,  3, 51)  (  1,  4, 50)  (  1,  4, 50)
  0 -0.1618E-06  0  0.1469E-06  0  0.1112E-06  0  0.7546E-07  0 -0.5208E-07
   (  1,  3, 51)  (  1,  4, 50)  (  1,  4, 50)  (  1,  3, 51)  (  1,  4, 50)
  0 -0.3907E-07  1  0.4280E-07  0 -0.1194E-06  0 -0.5922E-07  0  0.5625E-07
   (  1,  3, 51)  (  1,  3, 51)  (  1,  4, 48)  (  1,  4, 45)  (  1,  4, 48)
  0  0.8099E-07  0 -0.4821E-07  0  0.6410E-07  0 -0.5499E-07  0  0.2955E-07
   (  1,  4, 49)  (  1,  4, 50)  (  1,  1, 52)  (  1,  4, 48)  (  1,  4, 50)
  0  0.2950E-07  0 -0.1995E-07  0  0.1690E-07  0 -0.1900E-07  0  0.1926E-07
   (  1,  4, 47)  (  1,  4, 50)  (  1,  1, 52)  (  1,  4, 47)  (  1,  4, 50)
  1 -0.5080E-06  0  0.5613E-06  0  0.6808E-06  0  0.1827E-06  0 -0.5494E-06
   (  1,  4, 50)  (  1,  4, 50)  (  1,  4, 50)  (  1,  2, 50)  (  1,  4, 50)
  0 -0.2831E-06  0  0.2189E-06  0  0.3151E-06  0  0.2351E-06  0 -0.2052E-06
   (  1,  3, 51)  (  1,  4, 50)  (  1,  4, 50)  (  1,  3, 51)  (  1,  4, 50)
  0 -0.1454E-06  0 -0.6624E-07  0  0.6544E-07  0  0.6197E-07  0 -0.3729E-07
   (  1,  3, 51)  (  1,  3, 51)  (  1,  4, 50)  (  1,  3, 51)  (  1,  4, 50)
  0  0.4723E-07  0 -0.2490E-07  0 -0.3887E-07  0  0.4090E-07  0  0.2544E-07
   (  1,  3, 50)  (  1,  5, 49)  (  1,  3, 50)  (  1,  3, 51)  (  1,  5, 49)
  1  0.5882E-06  0 -0.3199E-06  0 -0.4860E-06  0 -0.1172E-06  0  0.3341E-06
   (  1,  4, 50)  (  1,  4, 50)  (  1,  4, 50)  (  1,  3, 51)  (  1,  4, 50)
  0  0.1760E-06  0  0.1123E-06  0 -0.2110E-06  0 -0.1597E-06  0  0.1445E-06
   (  1,  3, 51)  (  1,  2, 50)  (  1,  4, 50)  (  1,  3, 51)  (  1,  4, 50)
  0  0.1130E-06  0  0.7674E-07  0 -0.5098E-07  0 -0.3823E-07  1  0.4611E-07
   (  1,  4, 50)  (  1,  3, 51)  (  1,  4, 50)  (  1,  3, 51)  (  1,  3, 51)
  0 -0.1227E-06  0 -0.5715E-07  0 -0.5628E-07  0  0.7855E-07  0 -0.5074E-07
   (  1,  4, 48)  (  1,  4, 45)  (  1,  1, 52)  (  1,  4, 49)  (  1,  4, 50)
  0 -0.6351E-07  0 -0.5355E-07  0  0.2743E-07  0  0.2693E-07  0 -0.1903E-07
   (  1,  4, 48)  (  1,  4, 48)  (  1,  4, 50)  (  1,  4, 47)  (  1,  4, 50)
  1 -0.5154E-06  0  0.5755E-06  0  0.6744E-06  0  0.1828E-06  0 -0.5417E-06
   (  1,  4, 50)  (  1,  4, 50)  (  1,  4, 50)  (  1,  2, 50)  (  1,  4, 50)
  0 -0.2727E-06  0  0.2154E-06  0  0.3162E-06  0  0.2355E-06  0 -0.2116E-06
   (  1,  3, 51)  (  1,  4, 50)  (  1,  4, 50)  (  1,  3, 51)  (  1,  4, 50)
  0 -0.1483E-06  0 -0.7300E-07  0  0.6211E-07  0  0.5688E-07  0 -0.3217E-07
   (  1,  3, 51)  (  1,  3, 51)  (  1,  4, 50)  (  1,  3, 51)  (  1,  4, 50)
  0  0.4856E-07  0 -0.2945E-07  0 -0.4039E-07  0  0.3890E-07  0  0.2530E-07
   (  1,  3, 50)  (  1,  3, 51)  (  1,  3, 50)  (  1,  3, 51)  (  1,  5, 49)
  1  0.5850E-06  0 -0.3317E-06  0 -0.5016E-06  0 -0.1215E-06  0  0.3451E-06
   (  1,  4, 50)  (  1,  4, 50)  (  1,  4, 50)  (  1,  3, 51)  (  1,  4, 50)
  0  0.1814E-06  0 -0.1153E-06  0 -0.2171E-06  0 -0.1679E-06  0  0.1528E-06
   (  1,  3, 51)  (  1,  4, 50)  (  1,  4, 50)  (  1,  3, 51)  (  1,  4, 50)
  0  0.1135E-06  0  0.6719E-07  0 -0.5456E-07  0 -0.4119E-07  1  0.4978E-07
   (  1,  3, 51)  (  1,  3, 51)  (  1,  4, 50)  (  1,  3, 51)  (  1,  3, 51)
  0 -0.1142E-06  0 -0.5295E-07  0 -0.5629E-07  0  0.7384E-07  0 -0.5153E-07
   (  1,  4, 48)  (  1,  4, 45)  (  1,  1, 52)  (  1,  4, 49)  (  1,  4, 50)
  0 -0.6625E-07  0 -0.5312E-07  0  0.2584E-07  0  0.2802E-07  1 -0.5007E-06
   (  1,  4, 48)  (  1,  4, 49)  (  1,  4, 50)  (  1,  4, 47)  (  1,  4, 50)
  0  0.5819E-06  0  0.6885E-06  0  0.1803E-06  0 -0.5287E-06  0 -0.2607E-06
   (  1,  4, 50)  (  1,  4, 50)  (  1,  2, 50)  (  1,  4, 50)  (  1,  3, 51)
  0  0.2275E-06  0  0.3230E-06  0  0.2285E-06  0 -0.2152E-06  0 -0.1510E-06
   (  1,  4, 50)  (  1,  4, 50)  (  1,  3, 51)  (  1,  4, 50)  (  1,  3, 51)
  0 -0.7374E-07  0  0.6315E-07  0  0.5655E-07  0 -0.3184E-07  0  0.4824E-07
   (  1,  3, 51)  (  1,  4, 50)  (  1,  3, 51)  (  1,  4, 50)  (  1,  3, 50)
  0 -0.2894E-07  0 -0.4145E-07  0  0.4085E-07  0  0.2551E-07  1  0.5844E-06
   (  1,  3, 51)  (  1,  3, 50)  (  1,  3, 51)  (  1,  5, 49)  (  1,  4, 50)
  0 -0.3272E-06  0 -0.4966E-06  0 -0.1188E-06  0  0.3393E-06  0  0.1771E-06
   (  1,  4, 50)  (  1,  4, 50)  (  1,  3, 51)  (  1,  4, 50)  (  1,  3, 51)
  0 -0.1149E-06  0 -0.2138E-06  0 -0.1650E-06  0  0.1505E-06  0  0.1117E-06
   (  1,  4, 50)  (  1,  4, 50)  (  1,  3, 51)  (  1,  4, 50)  (  1,  3, 51)
  0  0.6444E-07  0 -0.5483E-07  0 -0.4205E-07  1  0.5246E-07  0 -0.1143E-06
   (  1,  3, 51)  (  1,  4, 50)  (  1,  3, 51)  (  1,  3, 51)  (  1,  4, 48)
  0 -0.5745E-07  0 -0.5608E-07  0  0.7358E-07  0 -0.5050E-07  0 -0.6548E-07
   (  1,  4, 45)  (  1,  1, 52)  (  1,  4, 49)  (  1,  4, 50)  (  1,  4, 48)
  0 -0.5456E-07  0  0.2771E-07  0  0.2635E-07  0 -0.1901E-07  0  0.1550E-07
   (  1,  4, 49)  (  1,  4, 50)  (  1,  4, 47)  (  1,  4, 50)  (  1,  1, 52)
  0 -0.1873E-07  0  0.1607E-07  1 -0.5082E-06  0  0.5688E-06  0  0.6803E-06
   (  1,  4, 49)  (  1,  4, 50)  (  1,  4, 50)  (  1,  4, 50)  (  1,  4, 50)
  0  0.1839E-06  0 -0.5498E-06  0 -0.2803E-06  0  0.2183E-06  0  0.3153E-06
   (  1,  2, 50)  (  1,  4, 50)  (  1,  3, 51)  (  1,  4, 50)  (  1,  4, 50)
  0  0.2335E-06  0 -0.2064E-06  0 -0.1453E-06  0 -0.6725E-07  0  0.6473E-07
   (  1,  3, 51)  (  1,  4, 50)  (  1,  3, 51)  (  1,  3, 51)  (  1,  4, 50)
  0  0.6093E-07  0 -0.3608E-07  0  0.4783E-07  0 -0.2660E-07  0 -0.3908E-07
   (  1,  3, 51)  (  1,  4, 50)  (  1,  3, 50)  (  1,  3, 51)  (  1,  3, 50)
  0  0.4102E-07  0  0.2605E-07  1  0.5850E-06  0 -0.3332E-06  0 -0.4998E-06
   (  1,  3, 51)  (  1,  5, 49)  (  1,  4, 50)  (  1,  4, 50)  (  1,  4, 50)
  0 -0.1193E-06  0  0.3394E-06  0  0.1788E-06  0  0.1123E-06  0 -0.2125E-06
   (  1,  3, 51)  (  1,  4, 50)  (  1,  3, 51)  (  1,  2, 50)  (  1,  4, 50)
  0 -0.1646E-06  0  0.1501E-06  0  0.1114E-06  0  0.7487E-07  0 -0.5177E-07
   (  1,  3, 51)  (  1,  4, 50)  (  1,  4, 50)  (  1,  3, 51)  (  1,  4, 50)
  0 -0.3793E-07  1  0.4378E-07  0 -0.1155E-06  0 -0.5445E-07  0  0.5516E-07
   (  1,  3, 51)  (  1,  3, 51)  (  1,  4, 48)  (  1,  4, 45)  (  1,  4, 48)
  0  0.7639E-07  0 -0.4729E-07  0 -0.6351E-07  0 -0.5461E-07  0  0.2517E-07
   (  1,  4, 49)  (  1,  4, 50)  (  1,  4, 48)  (  1,  4, 48)  (  1,  4, 50)
  0  0.2718E-07  0 -0.1733E-07  1 -0.5127E-06  0  0.5791E-06  0  0.6763E-06
   (  1,  4, 47)  (  1,  4, 50)  (  1,  4, 50)  (  1,  4, 50)  (  1,  4, 50)
  0  0.1819E-06  0 -0.5404E-06  0 -0.2743E-06  0  0.2182E-06  0  0.3197E-06
   (  1,  2, 50)  (  1,  4, 50)  (  1,  3, 51)  (  1,  4, 50)  (  1,  4, 50)
  0  0.2362E-06  0 -0.2111E-06  0 -0.1488E-06  0 -0.7008E-07  0  0.6400E-07
   (  1,  3, 51)  (  1,  4, 50)  (  1,  3, 51)  (  1,  3, 51)  (  1,  4, 50)
  0  0.5893E-07  0 -0.3513E-07  0  0.4684E-07  0 -0.2718E-07  0 -0.4097E-07
   (  1,  3, 51)  (  1,  4, 50)  (  1,  3, 50)  (  1,  3, 51)  (  1,  3, 50)
  0  0.3926E-07  0  0.2510E-07  1  0.5853E-06  0 -0.3249E-06  0 -0.4941E-06
   (  1,  3, 51)  (  1,  5, 49)  (  1,  4, 50)  (  1,  4, 50)  (  1,  4, 50)
  0 -0.1193E-06  0  0.3383E-06  0  0.1776E-06  0  0.1144E-06  0 -0.2162E-06
   (  1,  3, 51)  (  1,  4, 50)  (  1,  3, 51)  (  1,  2, 50)  (  1,  4, 50)
  0 -0.1636E-06  0  0.1471E-06  0  0.1123E-06  0  0.7627E-07  0 -0.5344E-07
   (  1,  3, 51)  (  1,  4, 50)  (  1,  4, 50)  (  1,  3, 51)  (  1,  4, 50)
  0 -0.3964E-07  1  0.4518E-07  0 -0.1214E-06  0 -0.5719E-07  0 -0.5512E-07
   (  1,  3, 51)  (  1,  3, 51)  (  1,  4, 48)  (  1,  4, 45)  (  1,  1, 52)
  0  0.7778E-07  0 -0.5026E-07  0  0.6334E-07  0 -0.5239E-07  0  0.2880E-07
   (  1,  4, 49)  (  1,  4, 50)  (  1,  1, 52)  (  1,  4, 48)  (  1,  4, 50)
  0  0.2757E-07  0 -0.1994E-07  1 -0.5138E-06  0  0.5797E-06  0  0.6807E-06
   (  1,  4, 47)  (  1,  4, 50)  (  1,  4, 50)  (  1,  4, 50)  (  1,  4, 50)
  0  0.1854E-06  0 -0.5489E-06  0 -0.2745E-06  0  0.2146E-06  0  0.3150E-06
   (  1,  2, 50)  (  1,  4, 50)  (  1,  3, 51)  (  1,  4, 50)  (  1,  4, 50)
  0  0.2366E-06  0 -0.2112E-06  0 -0.1483E-06  0 -0.7047E-07  0  0.6250E-07
   (  1,  3, 51)  (  1,  4, 50)  (  1,  3, 51)  (  1,  3, 51)  (  1,  4, 50)
  0  0.5730E-07  0 -0.3476E-07  0  0.4930E-07  0 -0.2939E-07  0 -0.4103E-07
   (  1,  3, 51)  (  1,  4, 50)  (  1,  3, 50)  (  1,  3, 51)  (  1,  3, 50)
  0  0.3917E-07  0  0.2519E-07  1  0.5874E-06  0 -0.3223E-06  0 -0.4950E-06
   (  1,  3, 51)  (  1,  5, 49)  (  1,  4, 50)  (  1,  4, 50)  (  1,  4, 50)
  0 -0.1199E-06  0  0.3371E-06  0  0.1774E-06  0  0.1138E-06  0 -0.2124E-06
   (  1,  3, 51)  (  1,  4, 50)  (  1,  3, 51)  (  1,  2, 50)  (  1,  4, 50)
  0 -0.1627E-06  0  0.1473E-06  0  0.1087E-06  0  0.6991E-07  0 -0.5324E-07
   (  1,  3, 51)  (  1,  4, 50)  (  1,  3, 51)  (  1,  3, 51)  (  1,  4, 50)
  0 -0.3994E-07  1  0.4713E-07  0 -0.1174E-06  0 -0.5398E-07  0 -0.5678E-07
   (  1,  3, 51)  (  1,  3, 51)  (  1,  4, 48)  (  1,  4, 45)  (  1,  1, 52)
  0  0.7742E-07  0 -0.5042E-07  0 -0.6220E-07  0 -0.5047E-07  0  0.2815E-07
   (  1,  4, 49)  (  1,  4, 50)  (  1,  4, 48)  (  1,  4, 49)  (  1,  4, 50)
  0  0.2773E-07  0 -0.1973E-07  1 -0.5119E-06  0  0.5803E-06  0  0.6740E-06
   (  1,  4, 47)  (  1,  4, 50)  (  1,  4, 50)  (  1,  4, 50)  (  1,  4, 50)
  0  0.1840E-06  0 -0.5494E-06  0 -0.2762E-06  0  0.2159E-06  0  0.3153E-06
   (  1,  2, 50)  (  1,  4, 50)  (  1,  3, 51)  (  1,  4, 50)  (  1,  4, 50)
  0  0.2380E-06  0 -0.2145E-06  0 -0.1495E-06  0 -0.6964E-07  0  0.6272E-07
   (  1,  3, 51)  (  1,  4, 50)  (  1,  3, 51)  (  1,  3, 51)  (  1,  4, 50)
  0  0.5802E-07  0 -0.3623E-07  0  0.4784E-07  0 -0.2747E-07  0 -0.4084E-07
   (  1,  3, 51)  (  1,  4, 50)  (  1,  3, 50)  (  1,  3, 51)  (  1,  3, 50)
  0  0.3969E-07  0  0.2516E-07  1  0.5834E-06  0 -0.3361E-06  0 -0.5043E-06
   (  1,  3, 51)  (  1,  5, 49)  (  1,  4, 50)  (  1,  4, 50)  (  1,  4, 50)
  0 -0.1213E-06  0  0.3488E-06  0  0.1828E-06  0 -0.1165E-06  0 -0.2179E-06
   (  1,  3, 51)  (  1,  4, 50)  (  1,  3, 51)  (  1,  4, 50)  (  1,  4, 50)
  0 -0.1675E-06  0  0.1529E-06  0  0.1138E-06  0  0.7606E-07  0 -0.5370E-07
   (  1,  3, 51)  (  1,  4, 50)  (  1,  4, 50)  (  1,  3, 51)  (  1,  4, 50)
  0 -0.3979E-07  1  0.4429E-07  0 -0.1202E-06  0 -0.5750E-07  0  0.5434E-07
   (  1,  3, 51)  (  1,  3, 51)  (  1,  4, 48)  (  1,  4, 45)  (  1,  4, 48)
  0  0.7721E-07  0 -0.4880E-07  0  0.6569E-07  0 -0.5441E-07  0  0.2941E-07
   (  1,  4, 49)  (  1,  4, 50)  (  1,  1, 52)  (  1,  4, 48)  (  1,  4, 50)
  0  0.2845E-07  0 -0.1999E-07  1 -0.5125E-06  0  0.5826E-06  0  0.6777E-06
   (  1,  4, 47)  (  1,  4, 50)  (  1,  4, 50)  (  1,  4, 50)  (  1,  4, 50)
  0  0.1830E-06  0 -0.5405E-06  0 -0.2710E-06  0  0.2132E-06  0  0.3149E-06
   (  1,  2, 50)  (  1,  4, 50)  (  1,  3, 51)  (  1,  4, 50)  (  1,  4, 50)
  0  0.2364E-06  0 -0.2134E-06  0 -0.1491E-06  0 -0.7130E-07  0  0.6194E-07
   (  1,  3, 51)  (  1,  4, 50)  (  1,  3, 51)  (  1,  3, 51)  (  1,  4, 50)
  0  0.5647E-07  0 -0.3339E-07  0  0.4823E-07  0 -0.2928E-07  0 -0.4086E-07
   (  1,  3, 51)  (  1,  4, 50)  (  1,  3, 50)  (  1,  3, 51)  (  1,  3, 50)
  0  0.3920E-07  0  0.2540E-07  1  0.5851E-06  0 -0.3267E-06  0 -0.4919E-06
   (  1,  3, 51)  (  1,  5, 49)  (  1,  4, 50)  (  1,  4, 50)  (  1,  4, 50)
  0 -0.1174E-06  0  0.3342E-06  0  0.1760E-06  0  0.1114E-06  0 -0.2118E-06
   (  1,  3, 51)  (  1,  4, 50)  (  1,  3, 51)  (  1,  2, 50)  (  1,  4, 50)
  0 -0.1642E-06  0  0.1500E-06  0  0.1106E-06  0  0.6922E-07  0 -0.5277E-07
   (  1,  3, 51)  (  1,  4, 50)  (  1,  3, 51)  (  1,  3, 51)  (  1,  4, 50)
  0 -0.3908E-07  1  0.4890E-07  0 -0.1200E-06  0 -0.5482E-07  0 -0.5858E-07
   (  1,  3, 51)  (  1,  3, 51)  (  1,  4, 48)  (  1,  4, 45)  (  1,  1, 52)
  0  0.7825E-07  0 -0.5207E-07  0 -0.6574E-07  0 -0.5198E-07  0  0.2644E-07
   (  1,  4, 49)  (  1,  4, 50)  (  1,  4, 48)  (  1,  4, 49)  (  1,  4, 50)
  0  0.2615E-07  1 -0.5023E-06  0  0.5838E-06  0  0.6869E-06  0  0.1822E-06
   (  1,  4, 47)  (  1,  4, 50)  (  1,  4, 50)  (  1,  4, 50)  (  1,  2, 50)
  0 -0.5339E-06  0 -0.2626E-06  0  0.2269E-06  0  0.3259E-06  0  0.2287E-06
   (  1,  4, 50)  (  1,  3, 51)  (  1,  4, 50)  (  1,  4, 50)  (  1,  3, 51)
  0 -0.2143E-06  0 -0.1507E-06  0 -0.7657E-07  0  0.6292E-07  0  0.5651E-07
   (  1,  4, 50)  (  1,  3, 51)  (  1,  3, 51)  (  1,  4, 50)  (  1,  3, 51)
  0 -0.3185E-07  0  0.4889E-07  0 -0.2951E-07  0 -0.4133E-07  0  0.4058E-07
   (  1,  4, 50)  (  1,  3, 50)  (  1,  3, 51)  (  1,  3, 50)  (  1,  3, 51)
  0  0.2564E-07  1  0.5859E-06  0 -0.3293E-06  0 -0.4979E-06  0 -0.1197E-06
   (  1,  5, 49)  (  1,  4, 50)  (  1,  4, 50)  (  1,  4, 50)  (  1,  3, 51)
  0  0.3410E-06  0  0.1781E-06  0 -0.1151E-06  0 -0.2147E-06  0 -0.1645E-06
   (  1,  4, 50)  (  1,  3, 51)  (  1,  4, 50)  (  1,  4, 50)  (  1,  3, 51)
  0  0.1509E-06  0  0.1124E-06  0  0.6382E-07  0 -0.5459E-07  0 -0.4267E-07
   (  1,  4, 50)  (  1,  3, 51)  (  1,  3, 51)  (  1,  4, 50)  (  1,  3, 51)
  1  0.6006E-07  0 -0.1174E-06  0 -0.5889E-07  0  0.6424E-07  0  0.6842E-07
   (  1,  3, 51)  (  1,  4, 48)  (  1,  4, 45)  (  1,  4, 49)  (  1,  4, 47)
  0 -0.5845E-07  0 -0.7853E-07  0 -0.4269E-07  0  0.3014E-07  0  0.2484E-07
   (  1,  4, 50)  (  1,  4, 49)  (  1,  4, 49)  (  1,  4, 50)  (  1,  4, 49)
  1 -0.5071E-06  0  0.5820E-06  0  0.6821E-06  0  0.1814E-06  0 -0.5339E-06
   (  1,  4, 50)  (  1,  4, 50)  (  1,  4, 50)  (  1,  2, 50)  (  1,  4, 50)
  0 -0.2613E-06  0  0.2178E-06  0  0.3259E-06  0  0.2262E-06  0 -0.2058E-06
   (  1,  3, 51)  (  1,  4, 50)  (  1,  4, 50)  (  1,  3, 51)  (  1,  4, 50)
  0 -0.1520E-06  0 -0.9287E-07  0  0.6155E-07  0  0.5435E-07  0 -0.3068E-07
   (  1,  4, 50)  (  1,  3, 51)  (  1,  4, 50)  (  1,  3, 51)  (  1,  4, 50)
  0  0.4925E-07  0 -0.2974E-07  0 -0.4111E-07  0  0.3997E-07  0  0.2554E-07
   (  1,  3, 50)  (  1,  3, 51)  (  1,  3, 50)  (  1,  3, 51)  (  1,  5, 49)
  1  0.5855E-06  0 -0.3245E-06  0 -0.4946E-06  0 -0.1188E-06  0  0.3401E-06
   (  1,  4, 50)  (  1,  4, 50)  (  1,  4, 50)  (  1,  3, 51)  (  1,  4, 50)
  0  0.1791E-06  0 -0.1159E-06  0 -0.2158E-06  0 -0.1648E-06  0  0.1500E-06
   (  1,  3, 51)  (  1,  4, 50)  (  1,  4, 50)  (  1,  3, 51)  (  1,  4, 50)
  0  0.1107E-06  0  0.6730E-07  0 -0.5460E-07  0 -0.4171E-07  1  0.4645E-07
   (  1,  3, 51)  (  1,  3, 51)  (  1,  4, 50)  (  1,  3, 51)  (  1,  3, 51)
  0 -0.1142E-06  0 -0.5488E-07  0 -0.5497E-07  0  0.7485E-07  0 -0.4943E-07
   (  1,  4, 48)  (  1,  4, 45)  (  1,  1, 52)  (  1,  4, 49)  (  1,  4, 50)
  0 -0.6210E-07  0 -0.5070E-07  0  0.2736E-07  0  0.2738E-07  0 -0.1979E-07
   (  1,  4, 48)  (  1,  4, 49)  (  1,  4, 50)  (  1,  4, 47)  (  1,  4, 50)
  0  0.1582E-07  0 -0.1967E-07  0  0.1868E-07  1 -0.5059E-06  0  0.5693E-06
   (  1,  1, 52)  (  1,  4, 47)  (  1,  4, 50)  (  1,  4, 50)  (  1,  4, 50)
  0  0.6780E-06  0  0.1823E-06  0 -0.5499E-06  0 -0.2818E-06  0  0.2211E-06
   (  1,  4, 50)  (  1,  2, 50)  (  1,  4, 50)  (  1,  3, 51)  (  1,  4, 50)
  0  0.3173E-06  0  0.2325E-06  0 -0.2059E-06  0 -0.1451E-06  0 -0.6664E-07
   (  1,  4, 50)  (  1,  3, 51)  (  1,  4, 50)  (  1,  3, 51)  (  1,  3, 51)
  0  0.6561E-07  0  0.6225E-07  0 -0.3623E-07  0  0.4742E-07  0 -0.2643E-07
   (  1,  4, 50)  (  1,  3, 51)  (  1,  4, 50)  (  1,  3, 50)  (  1,  3, 51)
  0 -0.3916E-07  0  0.4136E-07  0  0.2600E-07  1  0.5856E-06  0 -0.3309E-06
   (  1,  3, 50)  (  1,  3, 51)  (  1,  5, 49)  (  1,  4, 50)  (  1,  4, 50)
  0 -0.4947E-06  0 -0.1181E-06  0  0.3391E-06  0  0.1784E-06  0 -0.1133E-06
   (  1,  4, 50)  (  1,  3, 51)  (  1,  4, 50)  (  1,  3, 51)  (  1,  4, 50)
  0 -0.2135E-06  0 -0.1651E-06  0  0.1499E-06  0  0.1104E-06  0  0.7304E-07
   (  1,  4, 50)  (  1,  3, 51)  (  1,  4, 50)  (  1,  3, 51)  (  1,  3, 51)
  0 -0.5239E-07  0 -0.3838E-07  1  0.4238E-07  0 -0.1175E-06  0 -0.5864E-07
   (  1,  4, 50)  (  1,  3, 51)  (  1,  3, 51)  (  1,  4, 48)  (  1,  4, 45)
  0 -0.5581E-07  0  0.7912E-07  0 -0.4906E-07  0  0.6595E-07  0 -0.5281E-07
   (  1,  1, 52)  (  1,  4, 49)  (  1,  4, 50)  (  1,  1, 52)  (  1,  4, 48)
  0  0.2787E-07  0  0.2642E-07  1 -0.5020E-06  0  0.5857E-06  0  0.6877E-06
   (  1,  4, 50)  (  1,  4, 47)  (  1,  4, 50)  (  1,  4, 50)  (  1,  4, 50)
  0  0.1812E-06  0 -0.5325E-06  0 -0.2616E-06  0  0.2268E-06  0  0.3232E-06
   (  1,  2, 50)  (  1,  4, 50)  (  1,  3, 51)  (  1,  4, 50)  (  1,  4, 50)
  0  0.2287E-06  0 -0.2165E-06  0 -0.1511E-06  0 -0.7306E-07  0  0.6276E-07
   (  1,  3, 51)  (  1,  4, 50)  (  1,  3, 51)  (  1,  3, 51)  (  1,  4, 50)
  0  0.5705E-07  0 -0.3241E-07  0  0.4873E-07  0 -0.2914E-07  0 -0.4139E-07
   (  1,  3, 51)  (  1,  4, 50)  (  1,  3, 50)  (  1,  3, 51)  (  1,  3, 50)
  0  0.4098E-07  0  0.2565E-07  1  0.5873E-06  0 -0.3216E-06  0 -0.4912E-06
   (  1,  3, 51)  (  1,  5, 49)  (  1,  4, 50)  (  1,  4, 50)  (  1,  4, 50)
  0 -0.1188E-06  0  0.3385E-06  0  0.1759E-06  0 -0.1134E-06  0 -0.2132E-06
   (  1,  3, 51)  (  1,  4, 50)  (  1,  3, 51)  (  1,  4, 50)  (  1,  4, 50)
  0 -0.1629E-06  0  0.1502E-06  0  0.1099E-06  0  0.6944E-07  0 -0.5278E-07
   (  1,  3, 51)  (  1,  4, 50)  (  1,  3, 51)  (  1,  3, 51)  (  1,  4, 50)
  0 -0.4004E-07  1  0.4779E-07  0 -0.1179E-06  0 -0.5586E-07  0 -0.5546E-07
   (  1,  3, 51)  (  1,  3, 51)  (  1,  4, 48)  (  1,  4, 45)  (  1,  1, 52)
  0  0.7830E-07  0 -0.5030E-07  0  0.6171E-07  0 -0.4945E-07  0  0.2846E-07
   (  1,  4, 49)  (  1,  4, 50)  (  1,  1, 52)  (  1,  4, 49)  (  1,  4, 50)
  0  0.2595E-07  1 -0.5024E-06  0  0.5935E-06  0  0.6927E-06  0  0.1844E-06
   (  1,  4, 47)  (  1,  4, 50)  (  1,  4, 50)  (  1,  4, 50)  (  1,  2, 50)
  0 -0.5364E-06  0 -0.2636E-06  0  0.2258E-06  0  0.3220E-06  0  0.2276E-06
   (  1,  4, 50)  (  1,  3, 51)  (  1,  4, 50)  (  1,  4, 50)  (  1,  3, 51)
  0 -0.2128E-06  0 -0.1506E-06  0 -0.6915E-07  0  0.6349E-07  0  0.5804E-07
   (  1,  4, 50)  (  1,  3, 51)  (  1,  3, 51)  (  1,  4, 50)  (  1,  3, 51)
  0 -0.3450E-07  0  0.4862E-07  0 -0.2907E-07  0 -0.4238E-07  0  0.4142E-07
   (  1,  4, 50)  (  1,  3, 50)  (  1,  3, 51)  (  1,  3, 50)  (  1,  3, 51)
  0  0.2561E-07  1  0.5833E-06  0 -0.3408E-06  0 -0.5086E-06  0 -0.1216E-06
   (  1,  5, 49)  (  1,  4, 50)  (  1,  4, 50)  (  1,  4, 50)  (  1,  3, 51)
  0  0.3449E-06  0  0.1791E-06  0 -0.1154E-06  0 -0.2160E-06  0 -0.1639E-06
   (  1,  4, 50)  (  1,  3, 51)  (  1,  4, 50)  (  1,  4, 50)  (  1,  3, 51)
  0  0.1485E-06  0  0.1091E-06  0  0.7322E-07  0 -0.5324E-07  0 -0.3969E-07
   (  1,  4, 50)  (  1,  3, 51)  (  1,  3, 51)  (  1,  4, 50)  (  1,  3, 51)
  1  0.4557E-07  0 -0.1196E-06  0 -0.5804E-07  0 -0.5592E-07  0  0.7870E-07
   (  1,  3, 51)  (  1,  4, 48)  (  1,  4, 45)  (  1,  1, 52)  (  1,  4, 49)
  0 -0.4976E-07  0  0.6410E-07  0 -0.5263E-07  0  0.2831E-07  0  0.2933E-07
   (  1,  4, 50)  (  1,  1, 52)  (  1,  4, 48)  (  1,  4, 50)  (  1,  4, 47)
  0 -0.2015E-07  0  0.1634E-07  0 -0.1909E-07  0  0.1998E-07  1 -0.5028E-06
   (  1,  4, 50)  (  1,  1, 52)  (  1,  4, 47)  (  1,  4, 50)  (  1,  4, 50)
  0  0.5655E-06  0  0.6790E-06  0  0.1814E-06  0 -0.5459E-06  0 -0.2776E-06
   (  1,  4, 50)  (  1,  4, 50)  (  1,  2, 50)  (  1,  4, 50)  (  1,  3, 51)
  0  0.2220E-06  0  0.3162E-06  0  0.2323E-06  0 -0.2085E-06  0 -0.1459E-06
   (  1,  4, 50)  (  1,  4, 50)  (  1,  3, 51)  (  1,  4, 50)  (  1,  3, 51)
  0 -0.6625E-07  0  0.6545E-07  0  0.6194E-07  0 -0.3841E-07  0  0.4547E-07
   (  1,  3, 51)  (  1,  4, 50)  (  1,  3, 51)  (  1,  4, 50)  (  1,  3, 50)
  0 -0.2435E-07  0 -0.4146E-07  0  0.4371E-07  0  0.2147E-07  1  0.5847E-06
   (  1,  5, 49)  (  1,  3, 50)  (  1,  3, 51)  (  1,  5, 49)  (  1,  4, 50)
  0 -0.3275E-06  0 -0.4942E-06  0 -0.1189E-06  0  0.3362E-06  0  0.1747E-06
   (  1,  4, 50)  (  1,  4, 50)  (  1,  3, 51)  (  1,  4, 50)  (  1,  3, 51)
  0  0.1137E-06  0 -0.2105E-06  0 -0.1567E-06  0  0.1404E-06  0  0.1220E-06
   (  1,  2, 50)  (  1,  4, 50)  (  1,  3, 51)  (  1,  4, 50)  (  1,  4, 50)
  0  0.8191E-07  0 -0.5109E-07  0 -0.3791E-07  1  0.4585E-07  0 -0.1216E-06
   (  1,  3, 51)  (  1,  4, 50)  (  1,  3, 51)  (  1,  3, 51)  (  1,  4, 48)
  0 -0.5677E-07  0  0.5782E-07  0  0.7323E-07  0 -0.5078E-07  0 -0.6565E-07
   (  1,  4, 44)  (  1,  4, 48)  (  1,  4, 49)  (  1,  4, 50)  (  1,  4, 48)
  0 -0.5426E-07  0  0.2897E-07  0  0.2828E-07  0 -0.1943E-07  1 -0.5134E-06
   (  1,  4, 48)  (  1,  4, 50)  (  1,  4, 47)  (  1,  4, 50)  (  1,  4, 50)
  0  0.5792E-06  0  0.6857E-06  0  0.1851E-06  0 -0.5439E-06  0 -0.2746E-06
   (  1,  4, 50)  (  1,  4, 50)  (  1,  2, 50)  (  1,  4, 50)  (  1,  3, 51)
  0  0.2147E-06  0  0.3178E-06  0  0.2350E-06  0 -0.2108E-06  0 -0.1463E-06
   (  1,  4, 50)  (  1,  4, 50)  (  1,  3, 51)  (  1,  4, 50)  (  1,  3, 51)
  0 -0.7963E-07  0  0.6111E-07  0  0.5641E-07  0 -0.3066E-07  0  0.4953E-07
   (  1,  3, 51)  (  1,  4, 50)  (  1,  3, 51)  (  1,  4, 50)  (  1,  3, 50)
  0 -0.3045E-07  0 -0.4107E-07  0  0.3897E-07  0  0.2529E-07  1  0.5832E-06
   (  1,  3, 51)  (  1,  3, 50)  (  1,  3, 51)  (  1,  5, 49)  (  1,  4, 50)
  0 -0.3336E-06  0 -0.5020E-06  0 -0.1205E-06  0  0.3409E-06  0  0.1800E-06
   (  1,  4, 50)  (  1,  4, 50)  (  1,  3, 51)  (  1,  4, 50)  (  1,  3, 51)
  0 -0.1170E-06  0 -0.2181E-06  0 -0.1662E-06  0  0.1516E-06  0  0.1138E-06
   (  1,  4, 50)  (  1,  4, 50)  (  1,  3, 51)  (  1,  4, 50)  (  1,  3, 51)
  0  0.6463E-07  0 -0.5555E-07  0 -0.4284E-07  1  0.5649E-07  0 -0.1102E-06
   (  1,  3, 51)  (  1,  4, 50)  (  1,  3, 51)  (  1,  3, 51)  (  1,  4, 48)
  0 -0.5511E-07  0 -0.5493E-07  0  0.6875E-07  0 -0.4984E-07  0 -0.6143E-07
   (  1,  4, 45)  (  1,  1, 52)  (  1,  4, 49)  (  1,  4, 50)  (  1,  4, 48)
  0 -0.5348E-07  0  0.2447E-07  0  0.2563E-07  1 -0.5002E-06  0  0.5869E-06
   (  1,  4, 49)  (  1,  4, 50)  (  1,  4, 47)  (  1,  4, 50)  (  1,  4, 50)
  0  0.6864E-06  0  0.1834E-06  0 -0.5411E-06  0 -0.2649E-06  0  0.2252E-06
   (  1,  4, 50)  (  1,  2, 50)  (  1,  4, 50)  (  1,  3, 51)  (  1,  4, 50)
  0  0.3256E-06  0  0.2293E-06  0 -0.2147E-06  0 -0.1503E-06  0 -0.8185E-07
   (  1,  4, 50)  (  1,  3, 51)  (  1,  4, 50)  (  1,  3, 51)  (  1,  3, 51)
  0  0.6203E-07  0  0.5595E-07  0 -0.3163E-07  0  0.4924E-07  0 -0.2965E-07
   (  1,  4, 50)  (  1,  3, 51)  (  1,  4, 50)  (  1,  3, 50)  (  1,  3, 51)
  0 -0.4147E-07  0  0.4089E-07  0  0.2584E-07  1  0.5860E-06  0 -0.3332E-06
   (  1,  3, 50)  (  1,  3, 51)  (  1,  5, 49)  (  1,  4, 50)  (  1,  4, 50)
  0 -0.5010E-06  0 -0.1207E-06  0  0.3489E-06  0  0.1843E-06  0 -0.1177E-06
   (  1,  4, 50)  (  1,  3, 51)  (  1,  4, 50)  (  1,  3, 51)  (  1,  4, 50)
  0 -0.2194E-06  0 -0.1698E-06  0  0.1563E-06  0  0.1163E-06  0  0.6580E-07
   (  1,  4, 50)  (  1,  3, 51)  (  1,  4, 50)  (  1,  3, 51)  (  1,  3, 51)
  0 -0.5531E-07  0 -0.4309E-07  1  0.5923E-07  0 -0.1087E-06  0 -0.5120E-07
   (  1,  4, 50)  (  1,  3, 51)  (  1,  3, 51)  (  1,  4, 48)  (  1,  4, 45)
  0  0.5500E-07  0  0.6573E-07  0 -0.4830E-07  0 -0.6346E-07  0 -0.5328E-07
   (  1,  4, 49)  (  1,  4, 49)  (  1,  4, 50)  (  1,  4, 48)  (  1,  4, 49)
  0  0.2608E-07  0  0.2683E-07  0 -0.2013E-07  0 -0.1544E-07  0 -0.2026E-07
   (  1,  4, 50)  (  1,  4, 47)  (  1,  4, 50)  (  1,  4, 49)  (  1,  4, 49)
  0  0.1604E-07  1 -0.5093E-06  0  0.5693E-06  0  0.6808E-06  0  0.1860E-06
   (  1,  4, 50)  (  1,  4, 50)  (  1,  4, 50)  (  1,  4, 50)  (  1,  2, 50)
  0 -0.5554E-06  0 -0.2832E-06  0  0.2226E-06  0  0.3160E-06  0  0.2342E-06
   (  1,  4, 50)  (  1,  3, 51)  (  1,  4, 50)  (  1,  4, 50)  (  1,  3, 51)
  0 -0.2079E-06  0 -0.1456E-06  0 -0.6759E-07  0  0.6533E-07  0  0.6137E-07
   (  1,  4, 50)  (  1,  3, 51)  (  1,  3, 51)  (  1,  4, 50)  (  1,  3, 51)
  0 -0.3555E-07  0  0.4861E-07  0 -0.2743E-07  0 -0.3870E-07  0  0.4130E-07
   (  1,  4, 50)  (  1,  3, 50)  (  1,  3, 51)  (  1,  3, 50)  (  1,  3, 51)
  0  0.2615E-07  1  0.5844E-06  0 -0.3376E-06  0 -0.5095E-06  0 -0.1230E-06
   (  1,  5, 49)  (  1,  4, 50)  (  1,  4, 50)  (  1,  4, 50)  (  1,  3, 51)
  0  0.3492E-06  0  0.1827E-06  0 -0.1172E-06  0 -0.2187E-06  0 -0.1671E-06
   (  1,  4, 50)  (  1,  3, 51)  (  1,  4, 50)  (  1,  4, 50)  (  1,  3, 51)
  0  0.1521E-06  0  0.1122E-06  0  0.7561E-07  0 -0.5359E-07  0 -0.3962E-07
   (  1,  4, 50)  (  1,  4, 50)  (  1,  3, 51)  (  1,  4, 50)  (  1,  3, 51)
  1  0.4627E-07  0 -0.1222E-06  0 -0.5774E-07  0 -0.5527E-07  0  0.7899E-07
   (  1,  3, 51)  (  1,  4, 48)  (  1,  4, 45)  (  1,  1, 52)  (  1,  4, 49)
  0 -0.5002E-07  0  0.6498E-07  0 -0.5362E-07  0  0.2932E-07  0  0.2972E-07
   (  1,  4, 50)  (  1,  1, 52)  (  1,  4, 48)  (  1,  4, 50)  (  1,  4, 47)
  0 -0.2080E-07  0  0.1693E-07  0 -0.2002E-07  0  0.2057E-07  1 -0.5010E-06
   (  1,  4, 50)  (  1,  1, 52)  (  1,  4, 47)  (  1,  4, 50)  (  1,  4, 50)
  0  0.5628E-06  0  0.6748E-06  0  0.1798E-06  0 -0.5459E-06  0 -0.2793E-06
   (  1,  4, 50)  (  1,  4, 50)  (  1,  2, 50)  (  1,  4, 50)  (  1,  3, 51)
  0  0.2224E-06  0  0.3166E-06  0  0.2324E-06  0 -0.2094E-06  0 -0.1459E-06
   (  1,  4, 50)  (  1,  4, 50)  (  1,  3, 51)  (  1,  4, 50)  (  1,  3, 51)
  0 -0.6665E-07  0  0.6528E-07  0  0.6202E-07  0 -0.3640E-07  0  0.4649E-07
   (  1,  3, 51)  (  1,  4, 50)  (  1,  3, 51)  (  1,  4, 50)  (  1,  3, 50)
  0 -0.2492E-07  0 -0.3892E-07  0  0.4122E-07  0  0.2579E-07  1  0.5851E-06
   (  1,  3, 51)  (  1,  3, 50)  (  1,  3, 51)  (  1,  5, 49)  (  1,  4, 50)
  0 -0.3303E-06  0 -0.4951E-06  0 -0.1187E-06  0  0.3382E-06  0  0.1778E-06
   (  1,  4, 50)  (  1,  4, 50)  (  1,  3, 51)  (  1,  4, 50)  (  1,  3, 51)
  0 -0.1132E-06  0 -0.2140E-06  0 -0.1607E-06  0  0.1455E-06  0  0.1136E-06
   (  1,  4, 50)  (  1,  4, 50)  (  1,  3, 51)  (  1,  4, 50)  (  1,  4, 50)
  0  0.7765E-07  0 -0.5183E-07  0 -0.3891E-07  1  0.4333E-07  0 -0.1174E-06
   (  1,  3, 51)  (  1,  4, 50)  (  1,  3, 51)  (  1,  3, 51)  (  1,  4, 48)
  0 -0.5472E-07  0  0.5399E-07  0  0.7550E-07  0 -0.4781E-07  0  0.6300E-07
   (  1,  4, 44)  (  1,  4, 48)  (  1,  4, 49)  (  1,  4, 50)  (  1,  1, 52)
  0 -0.5412E-07  0  0.2824E-07  0  0.2825E-07  0 -0.1922E-07  0  0.1630E-07
   (  1,  4, 48)  (  1,  4, 50)  (  1,  4, 47)  (  1,  4, 50)  (  1,  1, 52)
  0 -0.1955E-07  0  0.2017E-07  1 -0.4997E-06  0  0.5764E-06  0  0.6851E-06
   (  1,  4, 47)  (  1,  4, 50)  (  1,  4, 50)  (  1,  4, 50)  (  1,  4, 50)
  0  0.1846E-06  0 -0.5568E-06  0 -0.2862E-06  0  0.2245E-06  0  0.3184E-06
   (  1,  2, 50)  (  1,  4, 50)  (  1,  3, 51)  (  1,  4, 50)  (  1,  4, 50)
  0  0.2329E-06  0 -0.2058E-06  0 -0.1456E-06  0 -0.6540E-07  0  0.6698E-07
   (  1,  3, 51)  (  1,  4, 50)  (  1,  3, 51)  (  1,  3, 51)  (  1,  4, 50)
  0  0.6411E-07  0 -0.3948E-07  0  0.4627E-07  0 -0.2477E-07  0 -0.4173E-07
   (  1,  3, 51)  (  1,  4, 50)  (  1,  3, 50)  (  1,  5, 49)  (  1,  3, 50)
  0  0.4318E-07  0  0.2266E-07  1  0.5844E-06  0 -0.3251E-06  0 -0.4933E-06
   (  1,  3, 51)  (  1,  5, 49)  (  1,  4, 50)  (  1,  4, 50)  (  1,  4, 50)
  0 -0.1182E-06  0  0.3391E-06  0  0.1780E-06  0  0.1142E-06  0 -0.2102E-06
   (  1,  3, 51)  (  1,  4, 50)  (  1,  3, 51)  (  1,  2, 50)  (  1,  4, 50)
  0 -0.1562E-06  0  0.1389E-06  0  0.1194E-06  0  0.8056E-07  0 -0.5169E-07
   (  1,  3, 51)  (  1,  4, 50)  (  1,  4, 50)  (  1,  3, 51)  (  1,  4, 50)
  0 -0.3845E-07  1 -0.4557E-07  0 -0.1230E-06  0 -0.5798E-07  0  0.5618E-07
   (  1,  3, 51)  (  1,  4, 49)  (  1,  4, 48)  (  1,  4, 44)  (  1,  4, 48)
  0  0.7349E-07  0 -0.5059E-07  0 -0.6434E-07  0 -0.5352E-07  0  0.2929E-07
   (  1,  4, 49)  (  1,  4, 50)  (  1,  4, 48)  (  1,  4, 48)  (  1,  4, 50)
  0  0.2867E-07  0 -0.1945E-07  1 -0.5129E-06  0  0.5747E-06  0  0.6718E-06
   (  1,  4, 47)  (  1,  4, 50)  (  1,  4, 50)  (  1,  4, 50)  (  1,  4, 50)
  0  0.1823E-06  0 -0.5442E-06  0 -0.2709E-06  0  0.2164E-06  0  0.3174E-06
   (  1,  2, 50)  (  1,  4, 50)  (  1,  3, 51)  (  1,  4, 50)  (  1,  4, 50)
  0  0.2364E-06  0 -0.2131E-06  0 -0.1480E-06  0 -0.7489E-07  0  0.6197E-07
   (  1,  3, 51)  (  1,  4, 50)  (  1,  3, 51)  (  1,  3, 51)  (  1,  4, 50)
  0  0.5610E-07  0 -0.3145E-07  0  0.4889E-07  0 -0.2984E-07  0 -0.4016E-07
   (  1,  3, 51)  (  1,  4, 50)  (  1,  3, 50)  (  1,  3, 51)  (  1,  3, 50)
  0  0.3904E-07  0  0.2544E-07  1  0.5861E-06  0 -0.3254E-06  0 -0.4970E-06
   (  1,  3, 51)  (  1,  5, 49)  (  1,  4, 50)  (  1,  4, 50)  (  1,  4, 50)
  0 -0.1202E-06  0  0.3381E-06  0  0.1781E-06  0  0.1145E-06  0 -0.2130E-06
   (  1,  3, 51)  (  1,  4, 50)  (  1,  3, 51)  (  1,  2, 50)  (  1,  4, 50)
  0 -0.1634E-06  0  0.1480E-06  0  0.1093E-06  0  0.6853E-07  0 -0.5404E-07
   (  1,  3, 51)  (  1,  4, 50)  (  1,  3, 51)  (  1,  3, 51)  (  1,  4, 50)
  0 -0.4071E-07  1  0.4834E-07  0 -0.1194E-06  0 -0.5688E-07  0 -0.5828E-07
   (  1,  3, 51)  (  1,  3, 51)  (  1,  4, 48)  (  1,  4, 45)  (  1,  1, 52)
  0  0.7905E-07  0 -0.5269E-07  0 -0.6479E-07  0 -0.5295E-07  0  0.2898E-07
   (  1,  4, 49)  (  1,  4, 50)  (  1,  4, 48)  (  1,  4, 49)  (  1,  4, 50)
  0  0.2922E-07  0 -0.2070E-07  0  0.1632E-07  0 -0.1915E-07  0  0.1914E-07
   (  1,  4, 47)  (  1,  4, 50)  (  1,  1, 52)  (  1,  4, 47)  (  1,  4, 50)
  1 -0.5062E-06  0  0.5712E-06  0  0.6931E-06  0  0.1868E-06  0 -0.5573E-06
   (  1,  4, 50)  (  1,  4, 50)  (  1,  4, 50)  (  1,  2, 50)  (  1,  4, 50)
  0 -0.2876E-06  0  0.2225E-06  0  0.3176E-06  0  0.2348E-06  0 -0.2070E-06
   (  1,  3, 51)  (  1,  4, 50)  (  1,  4, 50)  (  1,  3, 51)  (  1,  4, 50)
  0 -0.1464E-06  0 -0.6700E-07  0  0.6652E-07  0  0.6329E-07  0 -0.3790E-07
   (  1,  3, 51)  (  1,  3, 51)  (  1,  4, 50)  (  1,  3, 51)  (  1,  4, 50)
  0  0.4808E-07  0 -0.2555E-07  0 -0.3983E-07  0  0.4092E-07  0  0.2522E-07
   (  1,  3, 50)  (  1,  5, 49)  (  1,  3, 50)  (  1,  3, 51)  (  1,  5, 49)
  1  0.5856E-06  0 -0.3275E-06  0 -0.4989E-06  0 -0.1205E-06  0  0.3436E-06
   (  1,  4, 50)  (  1,  4, 50)  (  1,  4, 50)  (  1,  3, 51)  (  1,  4, 50)
  0  0.1798E-06  0  0.1145E-06  0 -0.2145E-06  0 -0.1626E-06  0  0.1478E-06
   (  1,  3, 51)  (  1,  2, 50)  (  1,  4, 50)  (  1,  3, 51)  (  1,  4, 50)
  0  0.1146E-06  0  0.7779E-07  0 -0.5207E-07  0 -0.3870E-07  1  0.4297E-07
   (  1,  4, 50)  (  1,  3, 51)  (  1,  4, 50)  (  1,  3, 51)  (  1,  3, 51)
  0 -0.1194E-06  0 -0.5661E-07  0 -0.5365E-07  0  0.7456E-07  0 -0.4755E-07
   (  1,  4, 48)  (  1,  4, 45)  (  1,  1, 52)  (  1,  4, 49)  (  1,  4, 50)
  0 -0.6350E-07  0 -0.5178E-07  0  0.2818E-07  0  0.2690E-07  0 -0.1985E-07
   (  1,  4, 49)  (  1,  4, 48)  (  1,  4, 50)  (  1,  4, 47)  (  1,  4, 50)
  1 -0.5151E-06  0  0.5725E-06  0  0.6686E-06  0  0.1815E-06  0 -0.5410E-06
   (  1,  4, 50)  (  1,  4, 50)  (  1,  4, 50)  (  1,  2, 50)  (  1,  4, 50)
  0 -0.2702E-06  0  0.2133E-06  0  0.3146E-06  0  0.2330E-06  0 -0.2093E-06
   (  1,  3, 51)  (  1,  4, 50)  (  1,  4, 50)  (  1,  3, 51)  (  1,  4, 50)
  0 -0.1462E-06  0 -0.7383E-07  0  0.6164E-07  0  0.5646E-07  0 -0.3159E-07
   (  1,  3, 51)  (  1,  3, 51)  (  1,  4, 50)  (  1,  3, 51)  (  1,  4, 50)
  0  0.4851E-07  0 -0.2984E-07  0 -0.4032E-07  0  0.3913E-07  0  0.2546E-07
   (  1,  3, 50)  (  1,  3, 51)  (  1,  3, 50)  (  1,  3, 51)  (  1,  5, 49)
  1  0.5854E-06  0 -0.3274E-06  0 -0.4954E-06  0 -0.1195E-06  0  0.3428E-06
   (  1,  4, 50)  (  1,  4, 50)  (  1,  4, 50)  (  1,  3, 51)  (  1,  4, 50)
  0  0.1796E-06  0 -0.1142E-06  0 -0.2147E-06  0 -0.1651E-06  0  0.1493E-06
   (  1,  3, 51)  (  1,  4, 50)  (  1,  4, 50)  (  1,  3, 51)  (  1,  4, 50)
  0  0.1102E-06  0  0.6838E-07  0 -0.5396E-07  0 -0.4042E-07  1  0.4979E-07
   (  1,  3, 51)  (  1,  3, 51)  (  1,  4, 50)  (  1,  3, 51)  (  1,  3, 51)
  0 -0.1213E-06  0 -0.5535E-07  0 -0.5645E-07  0  0.7749E-07  0 -0.5237E-07
   (  1,  4, 48)  (  1,  4, 45)  (  1,  1, 52)  (  1,  4, 49)  (  1,  4, 50)
  0  0.6262E-07  0 -0.5167E-07  0  0.2915E-07  0  0.2799E-07  0 -0.2008E-07
   (  1,  1, 52)  (  1,  4, 49)  (  1,  4, 50)  (  1,  4, 47)  (  1,  4, 50)
  1 -0.5115E-06  0  0.5818E-06  0  0.6750E-06  0  0.1837E-06  0 -0.5446E-06
   (  1,  4, 50)  (  1,  4, 50)  (  1,  4, 50)  (  1,  2, 50)  (  1,  4, 50)
  0 -0.2740E-06  0  0.2156E-06  0  0.3154E-06  0  0.2381E-06  0 -0.2134E-06
   (  1,  3, 51)  (  1,  4, 50)  (  1,  4, 50)  (  1,  3, 51)  (  1,  4, 50)
  0 -0.1500E-06  0 -0.6916E-07  0  0.6311E-07  0  0.5732E-07  0 -0.3707E-07
   (  1,  3, 51)  (  1,  3, 51)  (  1,  4, 50)  (  1,  3, 51)  (  1,  4, 50)
  0  0.4703E-07  0 -0.2599E-07  0 -0.4139E-07  0  0.3960E-07  0  0.2470E-07
   (  1,  3, 50)  (  1,  3, 51)  (  1,  3, 50)  (  1,  3, 51)  (  1,  5, 49)
  1  0.5843E-06  0 -0.3281E-06  0 -0.4971E-06  0 -0.1197E-06  0  0.3414E-06
   (  1,  4, 50)  (  1,  4, 50)  (  1,  4, 50)  (  1,  3, 51)  (  1,  4, 50)
  0  0.1780E-06  0  0.1145E-06  0 -0.2165E-06  0 -0.1632E-06  0  0.1474E-06
   (  1,  3, 51)  (  1,  2, 50)  (  1,  4, 50)  (  1,  3, 51)  (  1,  4, 50)
  0  0.1160E-06  0  0.7853E-07  0 -0.5325E-07  0 -0.3950E-07  1 -0.4378E-07
   (  1,  4, 50)  (  1,  3, 51)  (  1,  4, 50)  (  1,  3, 51)  (  1,  4, 49)
  0 -0.1222E-06  0 -0.5804E-07  0 -0.5367E-07  0  0.7428E-07  0 -0.4913E-07
   (  1,  4, 48)  (  1,  4, 44)  (  1,  1, 52)  (  1,  4, 49)  (  1,  4, 50)
  0  0.6285E-07  0 -0.5351E-07  0  0.2869E-07  0  0.2828E-07  0 -0.2080E-07
   (  1,  1, 52)  (  1,  4, 48)  (  1,  4, 50)  (  1,  4, 47)  (  1,  4, 50)
  0  0.1697E-07  0 -0.1956E-07  0  0.2020E-07  1 -0.5030E-06  0  0.5699E-06
   (  1,  1, 52)  (  1,  4, 47)  (  1,  4, 50)  (  1,  4, 50)  (  1,  4, 50)
  0  0.6816E-06  0  0.1826E-06  0 -0.5527E-06  0 -0.2846E-06  0  0.2233E-06
   (  1,  4, 50)  (  1,  2, 50)  (  1,  4, 50)  (  1,  3, 51)  (  1,  4, 50)
  0  0.3178E-06  0  0.2363E-06  0 -0.2088E-06  0 -0.1470E-06  0 -0.6687E-07
   (  1,  4, 50)  (  1,  3, 51)  (  1,  4, 50)  (  1,  3, 51)  (  1,  3, 51)
  0  0.6571E-07  0  0.6207E-07  0 -0.3589E-07  0  0.4758E-07  0 -0.2608E-07
   (  1,  4, 50)  (  1,  3, 51)  (  1,  4, 50)  (  1,  3, 50)  (  1,  3, 51)
  0 -0.3864E-07  0  0.4109E-07  0  0.2598E-07  1  0.5888E-06  0 -0.3281E-06
   (  1,  3, 50)  (  1,  3, 51)  (  1,  5, 49)  (  1,  4, 50)  (  1,  4, 50)
  0 -0.4961E-06  0 -0.1201E-06  0  0.3403E-06  0  0.1798E-06  0  0.1135E-06
   (  1,  4, 50)  (  1,  3, 51)  (  1,  4, 50)  (  1,  3, 51)  (  1,  2, 50)
  0 -0.2115E-06  0 -0.1622E-06  0  0.1459E-06  0  0.1107E-06  0  0.7482E-07
   (  1,  4, 50)  (  1,  3, 51)  (  1,  4, 50)  (  1,  4, 50)  (  1,  3, 51)
  0 -0.5187E-07  0 -0.3885E-07  1  0.4636E-07  0 -0.1204E-06  0 -0.5584E-07
   (  1,  4, 50)  (  1,  3, 51)  (  1,  3, 51)  (  1,  4, 48)  (  1,  4, 45)
  0 -0.5552E-07  0  0.7535E-07  0 -0.4799E-07  0 -0.6201E-07  0 -0.5164E-07
   (  1,  1, 52)  (  1,  4, 49)  (  1,  4, 50)  (  1,  4, 49)  (  1,  4, 48)
  0  0.2921E-07  0  0.2999E-07  0 -0.2104E-07  0  0.1658E-07  0 -0.1921E-07
   (  1,  4, 50)  (  1,  4, 47)  (  1,  4, 50)  (  1,  1, 52)  (  1,  4, 47)
  0  0.1978E-07  1 -0.5033E-06  0  0.5644E-06  0  0.6761E-06  0  0.1806E-06
   (  1,  4, 50)  (  1,  4, 50)  (  1,  4, 50)  (  1,  4, 50)  (  1,  2, 50)
  0 -0.5446E-06  0 -0.2783E-06  0  0.2199E-06  0  0.3140E-06  0  0.2317E-06
   (  1,  4, 50)  (  1,  3, 51)  (  1,  4, 50)  (  1,  4, 50)  (  1,  3, 51)
  0 -0.2068E-06  0 -0.1448E-06  0 -0.6595E-07  0  0.6511E-07  0  0.6180E-07
   (  1,  4, 50)  (  1,  3, 51)  (  1,  3, 51)  (  1,  4, 50)  (  1,  3, 51)
  0 -0.3721E-07  0  0.4648E-07  0 -0.2475E-07  0 -0.3957E-07  0  0.4168E-07
   (  1,  4, 50)  (  1,  3, 50)  (  1,  5, 49)  (  1,  3, 50)  (  1,  3, 51)
  0  0.2568E-07  1  0.5870E-06  0 -0.3254E-06  0 -0.4912E-06  0 -0.1177E-06
   (  1,  5, 49)  (  1,  4, 50)  (  1,  4, 50)  (  1,  4, 50)  (  1,  3, 51)
  0  0.3286E-06  0  0.1716E-06  0  0.1100E-06  0 -0.2081E-06  0 -0.1575E-06
   (  1,  4, 50)  (  1,  3, 51)  (  1,  2, 50)  (  1,  4, 50)  (  1,  3, 51)
  0  0.1421E-06  0  0.1130E-06  0  0.7689E-07  0 -0.5024E-07  0 -0.3719E-07
   (  1,  4, 50)  (  1,  4, 50)  (  1,  3, 51)  (  1,  4, 50)  (  1,  3, 51)
  1 -0.4551E-07  0 -0.1222E-06  0 -0.5768E-07  0  0.5883E-07  0  0.8139E-07
   (  1,  4, 49)  (  1,  4, 48)  (  1,  4, 44)  (  1,  4, 48)  (  1,  4, 49)
  0 -0.5196E-07  0 -0.6547E-07  0 -0.5390E-07  0  0.2908E-07  0  0.2691E-07
   (  1,  4, 50)  (  1,  4, 49)  (  1,  4, 48)  (  1,  4, 50)  (  1,  4, 47)
  0 -0.1784E-07  1 -0.5148E-06  0  0.5705E-06  0  0.6711E-06  0  0.1817E-06
   (  1,  4, 50)  (  1,  4, 50)  (  1,  4, 50)  (  1,  4, 50)  (  1,  2, 50)
  0 -0.5393E-06  0 -0.2712E-06  0  0.2143E-06  0  0.3167E-06  0  0.2367E-06
   (  1,  4, 50)  (  1,  3, 51)  (  1,  4, 50)  (  1,  4, 50)  (  1,  3, 51)
  0 -0.2129E-06  0 -0.1494E-06  0 -0.7155E-07  0  0.6241E-07  0  0.5684E-07
   (  1,  4, 50)  (  1,  3, 51)  (  1,  3, 51)  (  1,  4, 50)  (  1,  3, 51)
  0 -0.3309E-07  0  0.4763E-07  0 -0.2842E-07  0 -0.3982E-07  0  0.3880E-07
   (  1,  4, 50)  (  1,  3, 50)  (  1,  3, 51)  (  1,  3, 50)  (  1,  3, 51)
  0  0.2535E-07  1  0.5840E-06  0 -0.3302E-06  0 -0.4989E-06  0 -0.1199E-06
   (  1,  5, 49)  (  1,  4, 50)  (  1,  4, 50)  (  1,  4, 50)  (  1,  3, 51)
  0  0.3395E-06  0  0.1779E-06  0 -0.1149E-06  0 -0.2144E-06  0 -0.1637E-06
   (  1,  4, 50)  (  1,  3, 51)  (  1,  4, 50)  (  1,  4, 50)  (  1,  3, 51)
  0  0.1491E-06  0  0.1103E-06  0  0.6853E-07  0 -0.5376E-07  0 -0.4036E-07
   (  1,  4, 50)  (  1,  3, 51)  (  1,  3, 51)  (  1,  4, 50)  (  1,  3, 51)
  1  0.4682E-07  0 -0.1186E-06  0 -0.5476E-07  0 -0.5731E-07  0  0.7835E-07
   (  1,  3, 51)  (  1,  4, 48)  (  1,  4, 45)  (  1,  1, 52)  (  1,  4, 49)
  0 -0.5127E-07  0  0.6257E-07  0 -0.5138E-07  0  0.2862E-07  0  0.2898E-07
   (  1,  4, 50)  (  1,  1, 52)  (  1,  4, 49)  (  1,  4, 50)  (  1,  4, 47)
  0 -0.2035E-07  0  0.1519E-07  0 -0.1853E-07  0  0.1998E-07  1 -0.4979E-06
   (  1,  4, 50)  (  1,  1, 52)  (  1,  4, 47)  (  1,  4, 50)  (  1,  4, 50)
  0  0.5740E-06  0  0.6804E-06  0  0.1830E-06  0 -0.5518E-06  0 -0.2796E-06
   (  1,  4, 50)  (  1,  4, 50)  (  1,  2, 50)  (  1,  4, 50)  (  1,  3, 51)
  0  0.2222E-06  0  0.3153E-06  0  0.2308E-06  0 -0.2111E-06  0 -0.1472E-06
   (  1,  4, 50)  (  1,  4, 50)  (  1,  3, 51)  (  1,  4, 50)  (  1,  3, 51)
  0 -0.6592E-07  0  0.6499E-07  0  0.6241E-07  0 -0.3861E-07  0  0.4612E-07
   (  1,  3, 51)  (  1,  4, 50)  (  1,  3, 51)  (  1,  4, 50)  (  1,  3, 50)
  0 -0.2482E-07  0 -0.4140E-07  0  0.4349E-07  0  0.2394E-07  1  0.5868E-06
   (  1,  5, 49)  (  1,  3, 50)  (  1,  3, 51)  (  1,  5, 49)  (  1,  4, 50)
  0 -0.3218E-06  0 -0.4920E-06  0 -0.1192E-06  0  0.3382E-06  0  0.1749E-06
   (  1,  4, 50)  (  1,  4, 50)  (  1,  3, 51)  (  1,  4, 50)  (  1,  3, 51)
  0  0.1134E-06  0 -0.2123E-06  0 -0.1602E-06  0  0.1456E-06  0  0.1223E-06
   (  1,  2, 50)  (  1,  4, 50)  (  1,  3, 51)  (  1,  4, 50)  (  1,  4, 50)
  0  0.8215E-07  0 -0.5089E-07  0 -0.3725E-07  1  0.4520E-07  0 -0.1216E-06
   (  1,  3, 51)  (  1,  4, 50)  (  1,  3, 51)  (  1,  3, 51)  (  1,  4, 48)
  0 -0.5668E-07  0  0.5510E-07  0  0.7390E-07  0 -0.4902E-07  0  0.6264E-07
   (  1,  4, 44)  (  1,  4, 48)  (  1,  4, 49)  (  1,  4, 50)  (  1,  1, 52)
  0 -0.5364E-07  0  0.2710E-07  0  0.2622E-07  1 -0.4984E-06  0  0.5910E-06
   (  1,  4, 48)  (  1,  4, 50)  (  1,  4, 47)  (  1,  4, 50)  (  1,  4, 50)
  0  0.6917E-06  0  0.1816E-06  0 -0.5334E-06  0 -0.2630E-06  0  0.2277E-06
   (  1,  4, 50)  (  1,  2, 50)  (  1,  4, 50)  (  1,  3, 51)  (  1,  4, 50)
  0  0.3249E-06  0  0.2282E-06  0 -0.2133E-06  0 -0.1493E-06  0 -0.7744E-07
   (  1,  4, 50)  (  1,  3, 51)  (  1,  4, 50)  (  1,  3, 51)  (  1,  3, 51)
  0  0.6265E-07  0  0.5668E-07  0 -0.3173E-07  0  0.4903E-07  0 -0.2971E-07
   (  1,  4, 50)  (  1,  3, 51)  (  1,  4, 50)  (  1,  3, 50)  (  1,  3, 51)
  0 -0.4183E-07  0  0.4129E-07  0  0.2563E-07  1  0.5861E-06  0 -0.3302E-06
   (  1,  3, 50)  (  1,  3, 51)  (  1,  5, 49)  (  1,  4, 50)  (  1,  4, 50)
  0 -0.4951E-06  0 -0.1189E-06  0  0.3425E-06  0  0.1798E-06  0 -0.1151E-06
   (  1,  4, 50)  (  1,  3, 51)  (  1,  4, 50)  (  1,  3, 51)  (  1,  4, 50)
  0 -0.2160E-06  0 -0.1646E-06  0  0.1502E-06  0  0.1117E-06  0  0.6739E-07
   (  1,  4, 50)  (  1,  3, 51)  (  1,  4, 50)  (  1,  3, 51)  (  1,  3, 51)
  0 -0.5409E-07  0 -0.4149E-07  1  0.4870E-07  0 -0.1139E-06  0 -0.5402E-07
   (  1,  4, 50)  (  1,  3, 51)  (  1,  3, 51)  (  1,  4, 48)  (  1,  4, 45)
  0 -0.5418E-07  0  0.7340E-07  0 -0.4832E-07  0 -0.6148E-07  0 -0.5126E-07
   (  1,  1, 52)  (  1,  4, 49)  (  1,  4, 50)  (  1,  4, 48)  (  1,  4, 49)
  0  0.2771E-07  0  0.2771E-07  0 -0.2066E-07  0  0.1583E-07  0 -0.1956E-07
   (  1,  4, 50)  (  1,  4, 47)  (  1,  4, 50)  (  1,  1, 52)  (  1,  4, 47)
  0  0.1908E-07  1 -0.4999E-06  0  0.5752E-06  0  0.6776E-06  0  0.1839E-06
   (  1,  4, 50)  (  1,  4, 50)  (  1,  4, 50)  (  1,  4, 50)  (  1,  2, 50)
  0 -0.5575E-06  0 -0.2838E-06  0  0.2240E-06  0  0.3158E-06  0  0.2293E-06
   (  1,  4, 50)  (  1,  3, 51)  (  1,  4, 50)  (  1,  4, 50)  (  1,  3, 51)
  0 -0.2057E-06  0 -0.1444E-06  0 -0.6499E-07  0  0.6661E-07  0  0.6393E-07
   (  1,  4, 50)  (  1,  3, 51)  (  1,  3, 51)  (  1,  4, 50)  (  1,  3, 51)
  0 -0.3962E-07  0  0.4616E-07  0 -0.2483E-07  0 -0.4200E-07  0  0.4398E-07
   (  1,  4, 50)  (  1,  3, 50)  (  1,  5, 49)  (  1,  3, 50)  (  1,  3, 51)
  0  0.2257E-07  1  0.5840E-06  0 -0.3265E-06  0 -0.4977E-06  0 -0.1197E-06
   (  1,  5, 49)  (  1,  4, 50)  (  1,  4, 50)  (  1,  4, 50)  (  1,  3, 51)
  0  0.3417E-06  0  0.1780E-06  0  0.1160E-06  0 -0.2139E-06  0 -0.1557E-06
   (  1,  4, 50)  (  1,  3, 51)  (  1,  2, 50)  (  1,  4, 50)  (  1,  3, 51)
  0  0.1404E-06  0  0.1221E-06  0  0.8204E-07  0 -0.5205E-07  0 -0.3933E-07
   (  1,  4, 50)  (  1,  4, 50)  (  1,  3, 51)  (  1,  4, 50)  (  1,  3, 51)
  1  0.4594E-07  0 -0.1251E-06  0 -0.5964E-07  0  0.5626E-07  0  0.7663E-07
   (  1,  3, 51)  (  1,  4, 48)  (  1,  4, 44)  (  1,  4, 48)  (  1,  4, 49)
  0 -0.5276E-07  0 -0.6357E-07  0 -0.5160E-07  0  0.3116E-07  0  0.2750E-07
   (  1,  4, 50)  (  1,  4, 48)  (  1,  4, 48)  (  1,  4, 50)  (  1,  4, 47)
  0 -0.1963E-07  1 -0.5112E-06  0  0.5782E-06  0  0.6751E-06  0  0.1836E-06
   (  1,  4, 50)  (  1,  4, 50)  (  1,  4, 50)  (  1,  4, 50)  (  1,  2, 50)
  0 -0.5464E-06  0 -0.2734E-06  0  0.2144E-06  0  0.3160E-06  0  0.2358E-06
   (  1,  4, 50)  (  1,  3, 51)  (  1,  4, 50)  (  1,  4, 50)  (  1,  3, 51)
  0 -0.2138E-06  0 -0.1489E-06  0 -0.7418E-07  0  0.6162E-07  0  0.5603E-07
   (  1,  4, 50)  (  1,  3, 51)  (  1,  3, 51)  (  1,  4, 50)  (  1,  3, 51)
  0 -0.3226E-07  0  0.4914E-07  0 -0.2981E-07  0 -0.4060E-07  0  0.3895E-07
   (  1,  4, 50)  (  1,  3, 50)  (  1,  3, 51)  (  1,  3, 50)  (  1,  3, 51)
  0  0.2546E-07  1  0.5855E-06  0 -0.3299E-06  0 -0.4982E-06  0 -0.1200E-06
   (  1,  5, 49)  (  1,  4, 50)  (  1,  4, 50)  (  1,  4, 50)  (  1,  3, 51)
  0  0.3369E-06  0  0.1772E-06  0  0.1121E-06  0 -0.2125E-06  0 -0.1638E-06
   (  1,  4, 50)  (  1,  3, 51)  (  1,  2, 50)  (  1,  4, 50)  (  1,  3, 51)
  0  0.1498E-06  0  0.1112E-06  0  0.6747E-07  0 -0.5293E-07  0 -0.3990E-07
   (  1,  4, 50)  (  1,  3, 51)  (  1,  3, 51)  (  1,  4, 50)  (  1,  3, 51)
  1  0.4833E-07  0 -0.1172E-06  0 -0.5650E-07  0 -0.6125E-07  0  0.8076E-07
   (  1,  3, 51)  (  1,  4, 48)  (  1,  4, 45)  (  1,  1, 52)  (  1,  4, 49)
  0 -0.5344E-07  0 -0.6741E-07  0 -0.5240E-07  0  0.2740E-07  0  0.2853E-07
   (  1,  4, 50)  (  1,  4, 48)  (  1,  4, 49)  (  1,  4, 50)  (  1,  4, 47)
  0 -0.1938E-07  0  0.1448E-07  1 -0.5140E-06  0  0.5627E-06  0  0.6995E-06
   (  1,  4, 50)  (  1,  1, 52)  (  1,  4, 50)  (  1,  4, 50)  (  1,  4, 50)
  0  0.1776E-06  0 -0.5453E-06  0 -0.2795E-06  0  0.2007E-06  0  0.3137E-06
   (  1,  2, 50)  (  1,  4, 50)  (  1,  3, 51)  (  1,  4, 50)  (  1,  4, 50)
  0  0.2396E-06  0 -0.2065E-06  0 -0.1470E-06  0 -0.7129E-07  0  0.6257E-07
   (  1,  3, 51)  (  1,  4, 50)  (  1,  3, 51)  (  1,  3, 51)  (  1,  4, 50)
  0  0.6002E-07  0 -0.3446E-07  0  0.4706E-07  0 -0.2647E-07  0 -0.3950E-07
   (  1,  3, 51)  (  1,  4, 50)  (  1,  3, 50)  (  1,  3, 51)  (  1,  3, 50)
  0  0.3948E-07  0  0.2509E-07  1  0.5845E-06  0 -0.3300E-06  0 -0.4950E-06
   (  1,  3, 51)  (  1,  5, 49)  (  1,  4, 50)  (  1,  4, 50)  (  1,  4, 50)
  0 -0.1187E-06  0  0.3417E-06  0  0.1804E-06  0 -0.1147E-06  0 -0.2142E-06
   (  1,  3, 51)  (  1,  4, 50)  (  1,  3, 51)  (  1,  4, 50)  (  1,  4, 50)
  0 -0.1617E-06  0  0.1479E-06  0  0.1095E-06  0  0.7298E-07  0 -0.5288E-07
   (  1,  3, 51)  (  1,  4, 50)  (  1,  4, 50)  (  1,  3, 51)  (  1,  4, 50)
  0 -0.4019E-07  1  0.4677E-07  0 -0.1212E-06  0 -0.5610E-07  0 -0.5498E-07
   (  1,  3, 51)  (  1,  3, 51)  (  1,  4, 48)  (  1,  4, 45)  (  1,  1, 52)
  0  0.7611E-07  0 -0.4936E-07  0  0.6457E-07  0 -0.5469E-07  0  0.2894E-07
   (  1,  4, 49)  (  1,  4, 50)  (  1,  1, 52)  (  1,  4, 48)  (  1,  4, 50)
  0  0.2957E-07  0 -0.2122E-07  0  0.1750E-07  0 -0.1976E-07  0  0.2000E-07
   (  1,  4, 47)  (  1,  4, 50)  (  1,  1, 52)  (  1,  4, 47)  (  1,  4, 50)
  1 -0.5022E-06  0  0.5655E-06  0  0.6766E-06  0  0.1817E-06  0 -0.5506E-06
   (  1,  4, 50)  (  1,  4, 50)  (  1,  4, 50)  (  1,  2, 50)  (  1,  4, 50)
  0 -0.2816E-06  0  0.2204E-06  0  0.3161E-06  0  0.2339E-06  0 -0.2066E-06
   (  1,  3, 51)  (  1,  4, 50)  (  1,  4, 50)  (  1,  3, 51)  (  1,  4, 50)
  0 -0.1455E-06  0 -0.6631E-07  0  0.6568E-07  0  0.6182E-07  0 -0.3693E-07
   (  1,  3, 51)  (  1,  3, 51)  (  1,  4, 50)  (  1,  3, 51)  (  1,  4, 50)
  0  0.4719E-07  0 -0.2528E-07  0 -0.3890E-07  0  0.4107E-07  0  0.2579E-07
   (  1,  3, 50)  (  1,  3, 51)  (  1,  3, 50)  (  1,  3, 51)  (  1,  5, 49)
  1  0.5879E-06  0 -0.3168E-06  0 -0.4823E-06  0 -0.1162E-06  0  0.3333E-06
   (  1,  4, 50)  (  1,  4, 50)  (  1,  4, 50)  (  1,  3, 51)  (  1,  4, 50)
  0  0.1756E-06  0  0.1125E-06  0 -0.2128E-06  0 -0.1616E-06  0  0.1458E-06
   (  1,  3, 51)  (  1,  2, 50)  (  1,  4, 50)  (  1,  3, 51)  (  1,  4, 50)
  0  0.1139E-06  0  0.7696E-07  0 -0.5161E-07  0 -0.3802E-07  1  0.4155E-07
   (  1,  4, 50)  (  1,  3, 51)  (  1,  4, 50)  (  1,  3, 51)  (  1,  3, 51)
  0 -0.1179E-06  0 -0.5694E-07  0 -0.5335E-07  0  0.7427E-07  0 -0.4737E-07
   (  1,  4, 48)  (  1,  4, 45)  (  1,  1, 52)  (  1,  4, 49)  (  1,  4, 50)
  0  0.6163E-07  0 -0.5150E-07  0  0.2769E-07  0  0.2673E-07  0 -0.1813E-07
   (  1,  1, 52)  (  1,  4, 48)  (  1,  4, 50)  (  1,  4, 47)  (  1,  4, 50)
  1 -0.5157E-06  0  0.5678E-06  0  0.6668E-06  0  0.1801E-06  0 -0.5384E-06
   (  1,  4, 50)  (  1,  4, 50)  (  1,  4, 50)  (  1,  2, 50)  (  1,  4, 50)
  0 -0.2703E-06  0  0.2142E-06  0  0.3141E-06  0  0.2334E-06  0 -0.2095E-06
   (  1,  3, 51)  (  1,  4, 50)  (  1,  4, 50)  (  1,  3, 51)  (  1,  4, 50)
  0 -0.1468E-06  0 -0.7194E-07  0  0.6213E-07  0  0.5691E-07  0 -0.3219E-07
   (  1,  3, 51)  (  1,  3, 51)  (  1,  4, 50)  (  1,  3, 51)  (  1,  4, 50)
  0  0.4786E-07  0 -0.2925E-07  0 -0.4011E-07  0  0.3899E-07  0  0.2537E-07
   (  1,  3, 50)  (  1,  3, 51)  (  1,  3, 50)  (  1,  3, 51)  (  1,  5, 49)
  1  0.5843E-06  0 -0.3263E-06  0 -0.4934E-06  0 -0.1186E-06  0  0.3395E-06
   (  1,  4, 50)  (  1,  4, 50)  (  1,  4, 50)  (  1,  3, 51)  (  1,  4, 50)
  0  0.1787E-06  0 -0.1151E-06  0 -0.2155E-06  0 -0.1651E-06  0  0.1503E-06
   (  1,  3, 51)  (  1,  4, 50)  (  1,  4, 50)  (  1,  3, 51)  (  1,  4, 50)
  0  0.1113E-06  0  0.6699E-07  0 -0.5424E-07  0 -0.4089E-07  1  0.4719E-07
   (  1,  3, 51)  (  1,  3, 51)  (  1,  4, 50)  (  1,  3, 51)  (  1,  3, 51)
  0 -0.1156E-06  0 -0.5481E-07  0 -0.5476E-07  0  0.7435E-07  0 -0.5036E-07
   (  1,  4, 48)  (  1,  4, 45)  (  1,  1, 52)  (  1,  4, 49)  (  1,  4, 50)
  0 -0.6277E-07  0 -0.5115E-07  0  0.2638E-07  0  0.2695E-07  1 -0.5039E-06
   (  1,  4, 48)  (  1,  4, 49)  (  1,  4, 50)  (  1,  4, 47)  (  1,  4, 50)
  0  0.5860E-06  0  0.6842E-06  0  0.1807E-06  0 -0.5271E-06  0 -0.2615E-06
   (  1,  4, 50)  (  1,  4, 50)  (  1,  2, 50)  (  1,  4, 50)  (  1,  3, 51)
  0  0.2244E-06  0  0.3208E-06  0  0.2274E-06  0 -0.2142E-06  0 -0.1518E-06
   (  1,  4, 50)  (  1,  4, 50)  (  1,  3, 51)  (  1,  4, 50)  (  1,  3, 51)
  0 -0.6946E-07  0  0.6322E-07  0  0.5792E-07  0 -0.3334E-07  0  0.4730E-07
   (  1,  3, 51)  (  1,  4, 50)  (  1,  3, 51)  (  1,  4, 50)  (  1,  3, 50)
  0 -0.2816E-07  0 -0.4147E-07  0  0.4095E-07  0  0.2563E-07  1  0.5882E-06
   (  1,  3, 51)  (  1,  3, 50)  (  1,  3, 51)  (  1,  5, 49)  (  1,  4, 50)
  0 -0.3317E-06  0 -0.5009E-06  0 -0.1210E-06  0  0.3413E-06  0  0.1801E-06
   (  1,  4, 50)  (  1,  4, 50)  (  1,  3, 51)  (  1,  4, 50)  (  1,  3, 51)
  0  0.1139E-06  0 -0.2134E-06  0 -0.1644E-06  0  0.1491E-06  0  0.1098E-06
   (  1,  2, 50)  (  1,  4, 50)  (  1,  3, 51)  (  1,  4, 50)  (  1,  3, 51)
  0  0.7171E-07  0 -0.5292E-07  0 -0.4020E-07  1  0.5025E-07  0 -0.1200E-06
   (  1,  3, 51)  (  1,  4, 50)  (  1,  3, 51)  (  1,  3, 51)  (  1,  4, 48)
  0 -0.5144E-07  0 -0.5722E-07  0  0.7537E-07  0 -0.4975E-07  0 -0.6069E-07
   (  1,  4, 45)  (  1,  1, 52)  (  1,  4, 49)  (  1,  4, 50)  (  1,  4, 48)
  0 -0.5163E-07  0  0.2792E-07  0  0.2949E-07  0 -0.2117E-07  0  0.1550E-07
   (  1,  4, 48)  (  1,  4, 50)  (  1,  4, 47)  (  1,  4, 50)  (  1,  1, 52)
  0 -0.1998E-07  0  0.2058E-07  1 -0.4970E-06  0  0.5756E-06  0  0.6803E-06
   (  1,  4, 47)  (  1,  4, 50)  (  1,  4, 50)  (  1,  4, 50)  (  1,  4, 50)
  0  0.1833E-06  0 -0.5572E-06  0 -0.2843E-06  0  0.2250E-06  0  0.3178E-06
   (  1,  2, 50)  (  1,  4, 50)  (  1,  3, 51)  (  1,  4, 50)  (  1,  4, 50)
  0  0.2302E-06  0 -0.2078E-06  0 -0.1457E-06  0 -0.6664E-07  0  0.6627E-07
   (  1,  3, 51)  (  1,  4, 50)  (  1,  3, 51)  (  1,  3, 51)  (  1,  4, 50)
  0  0.6326E-07  0 -0.3635E-07  0  0.4828E-07  0 -0.2728E-07  0 -0.3968E-07
   (  1,  3, 51)  (  1,  4, 50)  (  1,  3, 50)  (  1,  3, 51)  (  1,  3, 50)
  0  0.4169E-07  0  0.2604E-07  1  0.5856E-06  0 -0.3305E-06  0 -0.5009E-06
   (  1,  3, 51)  (  1,  5, 49)  (  1,  4, 50)  (  1,  4, 50)  (  1,  4, 50)
  0 -0.1206E-06  0  0.3434E-06  0  0.1803E-06  0  0.1145E-06  0 -0.2142E-06
   (  1,  3, 51)  (  1,  4, 50)  (  1,  3, 51)  (  1,  2, 50)  (  1,  4, 50)
  0 -0.1627E-06  0  0.1477E-06  0  0.1096E-06  0  0.7354E-07  0 -0.5274E-07
   (  1,  3, 51)  (  1,  4, 50)  (  1,  4, 50)  (  1,  3, 51)  (  1,  4, 50)
  0 -0.3942E-07  1  0.4553E-07  0 -0.1216E-06  0 -0.5741E-07  0 -0.5749E-07
   (  1,  3, 51)  (  1,  3, 51)  (  1,  4, 48)  (  1,  4, 45)  (  1,  1, 52)
  0  0.7947E-07  0 -0.5030E-07  0 -0.6511E-07  0 -0.5337E-07  0  0.2997E-07
   (  1,  4, 49)  (  1,  4, 50)  (  1,  4, 49)  (  1,  4, 48)  (  1,  4, 50)
  0  0.2903E-07  0 -0.2025E-07  0  0.1647E-07  0 -0.1944E-07  0  0.1961E-07
   (  1,  4, 47)  (  1,  4, 50)  (  1,  1, 52)  (  1,  4, 47)  (  1,  4, 50)
  1 -0.5040E-06  0  0.5602E-06  0  0.6748E-06  0  0.1819E-06  0 -0.5484E-06
   (  1,  4, 50)  (  1,  4, 50)  (  1,  4, 50)  (  1,  2, 50)  (  1,  4, 50)
  0 -0.2784E-06  0  0.2223E-06  0  0.3187E-06  0  0.2352E-06  0 -0.2092E-06
   (  1,  3, 51)  (  1,  4, 50)  (  1,  4, 50)  (  1,  3, 51)  (  1,  4, 50)
  0 -0.1469E-06  0 -0.6801E-07  0  0.6486E-07  0  0.6034E-07  0 -0.3457E-07
   (  1,  3, 51)  (  1,  3, 51)  (  1,  4, 50)  (  1,  3, 51)  (  1,  4, 50)
  0  0.4772E-07  0 -0.2706E-07  0 -0.3784E-07  0  0.4060E-07  0  0.2600E-07
   (  1,  3, 50)  (  1,  3, 51)  (  1,  3, 50)  (  1,  3, 51)  (  1,  5, 49)
  1  0.5839E-06  0 -0.3268E-06  0 -0.4941E-06  0 -0.1185E-06  0  0.3390E-06
   (  1,  4, 50)  (  1,  4, 50)  (  1,  4, 50)  (  1,  3, 51)  (  1,  4, 50)
  0  0.1757E-06  0 -0.1127E-06  0 -0.2137E-06  0 -0.1632E-06  0  0.1499E-06
   (  1,  3, 51)  (  1,  4, 50)  (  1,  4, 50)  (  1,  3, 51)  (  1,  4, 50)
  0  0.1103E-06  0  0.7373E-07  0 -0.5196E-07  0 -0.3817E-07  1  0.4619E-07
   (  1,  4, 50)  (  1,  3, 51)  (  1,  4, 50)  (  1,  3, 51)  (  1,  3, 51)
  0 -0.1191E-06  0 -0.5506E-07  0 -0.5505E-07  0  0.7801E-07  0 -0.4937E-07
   (  1,  4, 48)  (  1,  4, 45)  (  1,  1, 52)  (  1,  4, 49)  (  1,  4, 50)
  0 -0.6293E-07  0 -0.5036E-07  0  0.2908E-07  0  0.2707E-07  0 -0.1902E-07
   (  1,  4, 49)  (  1,  4, 48)  (  1,  4, 50)  (  1,  4, 47)  (  1,  4, 50)
  0  0.1534E-07  1 -0.5091E-06  0  0.5665E-06  0  0.6930E-06  0  0.1780E-06
   (  1,  1, 52)  (  1,  4, 50)  (  1,  4, 50)  (  1,  4, 50)  (  1,  2, 50)
  0 -0.5541E-06  0 -0.2831E-06  0  0.2027E-06  0  0.3160E-06  0  0.2430E-06
   (  1,  4, 50)  (  1,  3, 51)  (  1,  4, 50)  (  1,  4, 50)  (  1,  3, 51)
  0 -0.2072E-06  0 -0.1472E-06  0 -0.7167E-07  0  0.6314E-07  0  0.5976E-07
   (  1,  4, 50)  (  1,  3, 51)  (  1,  3, 51)  (  1,  4, 50)  (  1,  3, 51)
  0 -0.3403E-07  0  0.4811E-07  0 -0.2716E-07  0 -0.3869E-07  0  0.3966E-07
   (  1,  4, 50)  (  1,  3, 50)  (  1,  3, 51)  (  1,  3, 50)  (  1,  3, 51)
  0  0.2565E-07  1  0.5852E-06  0 -0.3290E-06  0 -0.4970E-06  0 -0.1200E-06
   (  1,  5, 49)  (  1,  4, 50)  (  1,  4, 50)  (  1,  4, 50)  (  1,  3, 51)
  0  0.3441E-06  0  0.1813E-06  0  0.1151E-06  0 -0.2153E-06  0 -0.1627E-06
   (  1,  4, 50)  (  1,  3, 51)  (  1,  2, 50)  (  1,  4, 50)  (  1,  3, 51)
  0  0.1496E-06  0  0.1111E-06  0  0.7396E-07  0 -0.5324E-07  0 -0.4023E-07
   (  1,  4, 50)  (  1,  4, 50)  (  1,  3, 51)  (  1,  4, 50)  (  1,  3, 51)
  1  0.4283E-07  0 -0.1167E-06  0 -0.5694E-07  0  0.5322E-07  0  0.7539E-07
   (  1,  3, 51)  (  1,  4, 48)  (  1,  4, 45)  (  1,  4, 48)  (  1,  4, 49)
  0 -0.4588E-07  0  0.6186E-07  0 -0.5307E-07  0  0.2900E-07  0  0.2904E-07
   (  1,  4, 50)  (  1,  1, 52)  (  1,  4, 48)  (  1,  4, 50)  (  1,  4, 47)
  0 -0.2072E-07  0  0.1776E-07  0 -0.1991E-07  0  0.1984E-07  1 -0.5023E-06
   (  1,  4, 50)  (  1,  1, 52)  (  1,  4, 47)  (  1,  4, 50)  (  1,  4, 50)
  0  0.5682E-06  0  0.6888E-06  0  0.1836E-06  0 -0.5466E-06  0 -0.2789E-06
   (  1,  4, 50)  (  1,  4, 50)  (  1,  2, 50)  (  1,  4, 50)  (  1,  3, 51)
  0  0.2192E-06  0  0.3134E-06  0  0.2306E-06  0 -0.2041E-06  0 -0.1436E-06
   (  1,  4, 50)  (  1,  4, 50)  (  1,  3, 51)  (  1,  4, 50)  (  1,  3, 51)
  0 -0.6556E-07  0  0.6541E-07  0  0.6217E-07  0 -0.3855E-07  0  0.4695E-07
   (  1,  3, 51)  (  1,  4, 50)  (  1,  3, 51)  (  1,  4, 50)  (  1,  3, 50)
  0 -0.2533E-07  0 -0.4113E-07  0  0.4197E-07  0  0.2476E-07  1  0.5861E-06
   (  1,  5, 49)  (  1,  3, 50)  (  1,  3, 51)  (  1,  5, 49)  (  1,  4, 50)
  0 -0.3230E-06  0 -0.4935E-06  0 -0.1186E-06  0  0.3332E-06  0  0.1730E-06
   (  1,  4, 50)  (  1,  4, 50)  (  1,  3, 51)  (  1,  4, 50)  (  1,  3, 51)
  0  0.1119E-06  0 -0.2091E-06  0 -0.1571E-06  0  0.1419E-06  0  0.1175E-06
   (  1,  2, 50)  (  1,  4, 50)  (  1,  3, 51)  (  1,  4, 50)  (  1,  4, 50)
  0  0.7921E-07  0 -0.5051E-07  0 -0.3743E-07  1  0.4340E-07  0 -0.1223E-06
   (  1,  3, 51)  (  1,  4, 50)  (  1,  3, 51)  (  1,  3, 51)  (  1,  4, 48)
  0 -0.5976E-07  0 -0.5591E-07  0  0.7604E-07  0 -0.4931E-07  0 -0.6359E-07
   (  1,  4, 44)  (  1,  1, 52)  (  1,  4, 49)  (  1,  4, 50)  (  1,  4, 48)
  0 -0.5217E-07  0  0.2967E-07  0  0.2647E-07  0 -0.1763E-07  1 -0.5126E-06
   (  1,  4, 48)  (  1,  4, 50)  (  1,  4, 47)  (  1,  4, 50)  (  1,  4, 50)
  0  0.5764E-06  0  0.6777E-06  0  0.1816E-06  0 -0.5341E-06  0 -0.2661E-06
   (  1,  4, 50)  (  1,  4, 50)  (  1,  2, 50)  (  1,  4, 50)  (  1,  3, 51)
  0  0.2129E-06  0  0.3134E-06  0  0.2320E-06  0 -0.2094E-06  0 -0.1466E-06
   (  1,  4, 50)  (  1,  4, 50)  (  1,  3, 51)  (  1,  4, 50)  (  1,  3, 51)
  0 -0.7386E-07  0  0.6128E-07  0  0.5560E-07  0 -0.3137E-07  0  0.4840E-07
   (  1,  3, 51)  (  1,  4, 50)  (  1,  3, 51)  (  1,  4, 50)  (  1,  3, 50)
  0 -0.3022E-07  0 -0.4089E-07  0  0.3907E-07  0  0.2530E-07  1  0.5843E-06
   (  1,  3, 51)  (  1,  3, 50)  (  1,  3, 51)  (  1,  5, 49)  (  1,  4, 50)
  0 -0.3298E-06  0 -0.4956E-06  0 -0.1193E-06  0  0.3359E-06  0  0.1762E-06
   (  1,  4, 50)  (  1,  4, 50)  (  1,  3, 51)  (  1,  4, 50)  (  1,  3, 51)
  0 -0.1140E-06  0 -0.2140E-06  0 -0.1632E-06  0  0.1494E-06  0  0.1110E-06
   (  1,  4, 50)  (  1,  4, 50)  (  1,  3, 51)  (  1,  4, 50)  (  1,  3, 51)
  0  0.6592E-07  0 -0.5347E-07  0 -0.4076E-07  1  0.5121E-07  0 -0.1139E-06
   (  1,  3, 51)  (  1,  4, 50)  (  1,  3, 51)  (  1,  3, 51)  (  1,  4, 48)
  0 -0.5395E-07  0 -0.5667E-07  0  0.7508E-07  0 -0.5044E-07  0 -0.6380E-07
   (  1,  4, 45)  (  1,  1, 52)  (  1,  4, 49)  (  1,  4, 50)  (  1,  4, 48)
  0 -0.5299E-07  0  0.2658E-07  0  0.2740E-07  1 -0.5004E-06  0  0.5866E-06
   (  1,  4, 49)  (  1,  4, 50)  (  1,  4, 47)  (  1,  4, 50)  (  1,  4, 50)
  0  0.6823E-06  0  0.1812E-06  0 -0.5306E-06  0 -0.2603E-06  0  0.2248E-06
   (  1,  4, 50)  (  1,  2, 50)  (  1,  4, 50)  (  1,  3, 51)  (  1,  4, 50)
  0  0.3223E-06  0  0.2272E-06  0 -0.2148E-06  0 -0.1511E-06  0 -0.7155E-07
   (  1,  4, 50)  (  1,  3, 51)  (  1,  4, 50)  (  1,  3, 51)  (  1,  3, 51)
  0  0.6278E-07  0  0.5694E-07  0 -0.3270E-07  0  0.4820E-07  0 -0.2909E-07
   (  1,  4, 50)  (  1,  3, 51)  (  1,  4, 50)  (  1,  3, 50)  (  1,  3, 51)
  0 -0.4154E-07  0  0.4107E-07  0  0.2573E-07  1  0.5835E-06  0 -0.3295E-06
   (  1,  3, 50)  (  1,  3, 51)  (  1,  5, 49)  (  1,  4, 50)  (  1,  4, 50)
  0 -0.4962E-06  0 -0.1192E-06  0  0.3452E-06  0  0.1797E-06  0 -0.1176E-06
   (  1,  4, 50)  (  1,  3, 51)  (  1,  4, 50)  (  1,  3, 51)  (  1,  4, 50)
  0 -0.2168E-06  0 -0.1655E-06  0  0.1526E-06  0  0.1126E-06  0  0.6614E-07
   (  1,  4, 50)  (  1,  3, 51)  (  1,  4, 50)  (  1,  3, 51)  (  1,  3, 51)
  0 -0.5473E-07  0 -0.4211E-07  1  0.4647E-07  0 -0.1124E-06  0 -0.5686E-07
   (  1,  4, 50)  (  1,  3, 51)  (  1,  3, 51)  (  1,  4, 48)  (  1,  4, 45)
  0 -0.5637E-07  0  0.7597E-07  0 -0.4948E-07  0 -0.6228E-07  0 -0.5086E-07
   (  1,  1, 52)  (  1,  4, 49)  (  1,  4, 50)  (  1,  4, 48)  (  1,  4, 49)
  0  0.2877E-07  0  0.2741E-07  0 -0.1932E-07  0  0.1538E-07  0 -0.1905E-07
   (  1,  4, 50)  (  1,  4, 47)  (  1,  4, 50)  (  1,  1, 52)  (  1,  4, 47)
  0  0.1787E-07  1 -0.5024E-06  0  0.5724E-06  0  0.6805E-06  0  0.1843E-06
   (  1,  4, 50)  (  1,  4, 50)  (  1,  4, 50)  (  1,  4, 50)  (  1,  2, 50)
  0 -0.5551E-06  0 -0.2817E-06  0  0.2220E-06  0  0.3173E-06  0  0.2320E-06
   (  1,  4, 50)  (  1,  3, 51)  (  1,  4, 50)  (  1,  4, 50)  (  1,  3, 51)
  0 -0.2093E-06  0 -0.1460E-06  0 -0.6718E-07  0  0.6516E-07  0  0.6243E-07
   (  1,  4, 50)  (  1,  3, 51)  (  1,  3, 51)  (  1,  4, 50)  (  1,  3, 51)
  0 -0.3688E-07  0  0.4789E-07  0 -0.2617E-07  0 -0.3948E-07  0  0.4160E-07
   (  1,  4, 50)  (  1,  3, 50)  (  1,  3, 51)  (  1,  3, 50)  (  1,  3, 51)
  0  0.2612E-07
   (  1,  5, 49)



 NO OUTPUT CONTROL FOR STRESS PERIOD   15   TIME STEP   16



 STREAM LISTING     PERIOD     15   STEP       16

 LAYER ROW COL. STREAM  RCH.   FLOW INTO    STREAM     FLOW OUT OF   OVRLND.    DIRECT     STREAM      STREAM      STREAM     STREAM  STREAMBED   FLOW TO   CHNG. UNSAT. 
                SEG.NO.  NO.   STRM. RCH.    LOSS       STRM. RCH.   RUNOFF     PRECIP       ET         HEAD        DEPTH      WIDTH  CONDCTNC.   WAT. TAB.

   1    4    1     1     1    6.1800E+00  2.0196E-03   6.1780E+00  0.000E+00  0.000E+00  0.000E+00  1.41732E+02  1.882E+00  4.064E+00  8.478E-04  2.022E-03  2.232E-06
   1    4    2     1     2    6.1780E+00  2.0191E-03   6.1760E+00  0.000E+00  0.000E+00  0.000E+00  1.41432E+02  1.882E+00  4.064E+00  8.477E-04  2.028E-03 -3.853E-06
   1    4    3     1     3    6.1760E+00  2.0186E-03   6.1739E+00  0.000E+00  0.000E+00  0.000E+00  1.41131E+02  1.881E+00  4.064E+00  8.476E-04  2.033E-03 -9.905E-06
   1    4    4     1     4    6.1739E+00  2.0180E-03   6.1719E+00  0.000E+00  0.000E+00  0.000E+00  1.40831E+02  1.881E+00  4.063E+00  8.475E-04  2.039E-03 -1.596E-05
   1    4    5     1     5    6.1719E+00  2.0175E-03   6.1699E+00  0.000E+00  0.000E+00  0.000E+00  1.40531E+02  1.881E+00  4.063E+00  8.474E-04  2.045E-03 -2.213E-05
   1    4    6     1     6    6.1699E+00  2.0170E-03   6.1679E+00  0.000E+00  0.000E+00  0.000E+00  1.40231E+02  1.881E+00  4.062E+00  8.473E-04  2.047E-03 -2.535E-05
   1    4    7     1     7    6.1679E+00  2.0165E-03   6.1659E+00  0.000E+00  0.000E+00  0.000E+00  1.39930E+02  1.880E+00  4.062E+00  8.472E-04  2.050E-03 -2.865E-05
   1    4    8     1     8    6.1659E+00  2.0160E-03   6.1639E+00  0.000E+00  0.000E+00  0.000E+00  1.39630E+02  1.880E+00  4.062E+00  8.471E-04  2.053E-03 -3.210E-05
   1    4    9     1     9    6.1639E+00  2.0155E-03   6.1618E+00  0.000E+00  0.000E+00  0.000E+00  1.39330E+02  1.880E+00  4.061E+00  8.470E-04  2.057E-03 -3.628E-05
   1    4   10     1    10    6.1618E+00  2.0150E-03   6.1598E+00  0.000E+00  0.000E+00  0.000E+00  1.39029E+02  1.879E+00  4.061E+00  8.469E-04  2.062E-03 -4.253E-05
   1    4   11     1    11    6.1598E+00  2.0144E-03   6.1578E+00  0.000E+00  0.000E+00  0.000E+00  1.38729E+02  1.879E+00  4.061E+00  8.468E-04  2.068E-03 -4.897E-05
   1    4   12     1    12    6.1578E+00  2.0139E-03   6.1558E+00  0.000E+00  0.000E+00  0.000E+00  1.38429E+02  1.879E+00  4.060E+00  8.467E-04  2.079E-03 -5.988E-05
   1    4   13     1    13    6.1558E+00  2.0134E-03   6.1538E+00  0.000E+00  0.000E+00  0.000E+00  1.38128E+02  1.878E+00  4.060E+00  8.466E-04  2.095E-03 -7.628E-05
   1    4   14     1    14    6.1538E+00  2.0129E-03   6.1518E+00  0.000E+00  0.000E+00  0.000E+00  1.37828E+02  1.878E+00  4.059E+00  8.465E-04  2.116E-03 -9.818E-05
   1    4   15     1    15    6.1518E+00  2.0124E-03   6.1498E+00  0.000E+00  0.000E+00  0.000E+00  1.37528E+02  1.878E+00  4.059E+00  8.464E-04  2.138E-03 -1.203E-04
   1    4   16     1    16    6.1498E+00  2.0119E-03   6.1477E+00  0.000E+00  0.000E+00  0.000E+00  1.37227E+02  1.877E+00  4.059E+00  8.463E-04  2.172E-03 -1.548E-04
   1    4   17     1    17    6.1477E+00  2.0114E-03   6.1457E+00  0.000E+00  0.000E+00  0.000E+00  1.36927E+02  1.877E+00  4.058E+00  8.462E-04  2.229E-03 -2.124E-04
   1    4   18     1    18    6.1457E+00  2.0108E-03   6.1437E+00  0.000E+00  0.000E+00  0.000E+00  1.36627E+02  1.877E+00  4.058E+00  8.461E-04  2.340E-03 -3.241E-04
   1    4   19     1    19    6.1437E+00  2.0103E-03   6.1417E+00  0.000E+00  0.000E+00  0.000E+00  1.36326E+02  1.876E+00  4.057E+00  8.460E-04  2.452E-03 -4.363E-04
   1    4   20     1    20    6.1417E+00  2.0098E-03   6.1397E+00  0.000E+00  0.000E+00  0.000E+00  1.36026E+02  1.876E+00  4.057E+00  8.458E-04  2.375E-03 -3.605E-04
   1    4   21     1    21    6.1397E+00  2.0093E-03   6.1377E+00  0.000E+00  0.000E+00  0.000E+00  1.35726E+02  1.876E+00  4.057E+00  8.457E-04  2.551E-03 -5.366E-04
   1    4   22     1    22    6.1377E+00  2.0088E-03   6.1357E+00  0.000E+00  0.000E+00  0.000E+00  1.35425E+02  1.875E+00  4.056E+00  8.456E-04  2.882E-03 -8.679E-04
   1    4   23     1    23    6.1357E+00  2.0083E-03   6.1337E+00  0.000E+00  0.000E+00  0.000E+00  1.35125E+02  1.875E+00  4.056E+00  8.455E-04  3.394E-03 -1.381E-03
   1    4   24     1    24    6.1337E+00  2.0078E-03   6.1317E+00  0.000E+00  0.000E+00  0.000E+00  1.34825E+02  1.875E+00  4.056E+00  8.454E-04  0.000E+00  2.013E-03
   1    4   25     1    25    6.1317E+00  2.0073E-03   6.1297E+00  0.000E+00  0.000E+00  0.000E+00  1.34525E+02  1.875E+00  4.055E+00  8.453E-04  0.000E+00  2.012E-03
   1    4   26     1    26    6.1297E+00  2.0067E-03   6.1277E+00  0.000E+00  0.000E+00  0.000E+00  1.34224E+02  1.874E+00  4.055E+00  8.452E-04  0.000E+00  2.007E-03
   1    4   27     1    27    6.1277E+00  2.0062E-03   6.1257E+00  0.000E+00  0.000E+00  0.000E+00  1.33924E+02  1.874E+00  4.054E+00  8.451E-04  0.000E+00  2.006E-03
   1    4   28     1    28    6.1257E+00  2.0057E-03   6.1236E+00  0.000E+00  0.000E+00  0.000E+00  1.33624E+02  1.874E+00  4.054E+00  8.450E-04  0.000E+00  2.006E-03
   1    4   29     1    29    6.1236E+00  2.0052E-03   6.1216E+00  0.000E+00  0.000E+00  0.000E+00  1.33323E+02  1.873E+00  4.054E+00  8.449E-04  0.000E+00  2.005E-03
   1    4   30     1    30    6.1216E+00  2.0047E-03   6.1196E+00  0.000E+00  0.000E+00  0.000E+00  1.33023E+02  1.873E+00  4.053E+00  8.448E-04  0.000E+00  2.005E-03
   1    4   31     1    31    6.1196E+00  2.0042E-03   6.1176E+00  0.000E+00  0.000E+00  0.000E+00  1.32723E+02  1.873E+00  4.053E+00  8.447E-04  0.000E+00  2.004E-03
   1    4   32     1    32    6.1176E+00  2.0037E-03   6.1156E+00  0.000E+00  0.000E+00  0.000E+00  1.32422E+02  1.872E+00  4.053E+00  8.446E-04  0.000E+00  2.004E-03
   1    4   33     1    33    6.1156E+00  2.0032E-03   6.1136E+00  0.000E+00  0.000E+00  0.000E+00  1.32122E+02  1.872E+00  4.052E+00  8.445E-04  0.000E+00  2.003E-03
   1    4   34     1    34    6.1136E+00  2.0026E-03   6.1116E+00  0.000E+00  0.000E+00  0.000E+00  1.31822E+02  1.872E+00  4.052E+00  8.444E-04  0.000E+00  2.003E-03
   1    4   35     1    35    6.1116E+00  2.0021E-03   6.1096E+00  0.000E+00  0.000E+00  0.000E+00  1.31521E+02  1.871E+00  4.051E+00  8.443E-04  0.000E+00  2.002E-03
   1    4   36     1    36    6.1096E+00  2.0016E-03   6.1076E+00  0.000E+00  0.000E+00  0.000E+00  1.31221E+02  1.871E+00  4.051E+00  8.442E-04  0.000E+00  2.002E-03
   1    4   37     1    37    6.1076E+00  2.0011E-03   6.1056E+00  0.000E+00  0.000E+00  0.000E+00  1.30921E+02  1.871E+00  4.051E+00  8.441E-04  1.013E-04  1.900E-03
   1    4   38     1    38    6.1056E+00  2.0006E-03   6.1036E+00  0.000E+00  0.000E+00  0.000E+00  1.30620E+02  1.870E+00  4.050E+00  8.440E-04  0.000E+00  2.001E-03
   1    4   39     1    39    6.1036E+00  2.0001E-03   6.1016E+00  0.000E+00  0.000E+00  0.000E+00  1.30320E+02  1.870E+00  4.050E+00  8.439E-04  0.000E+00  2.000E-03
   1    4   40     1    40    6.1016E+00  1.9996E-03   6.0996E+00  0.000E+00  0.000E+00  0.000E+00  1.30020E+02  1.870E+00  4.050E+00  8.438E-04  0.000E+00  2.000E-03
   1    4   41     1    41    6.0996E+00  1.9991E-03   6.0976E+00  0.000E+00  0.000E+00  0.000E+00  1.29719E+02  1.869E+00  4.049E+00  8.437E-04  0.000E+00  1.999E-03
   1    4   42     1    42    6.0976E+00  1.9545E-03   6.0957E+00  0.000E+00  0.000E+00  0.000E+00  1.29419E+02  1.869E+00  4.049E+00  8.436E-04  0.000E+00  1.954E-03
   1    4   43     1    43    6.0957E+00  1.9981E-03   6.0937E+00  0.000E+00  0.000E+00  0.000E+00  1.29119E+02  1.869E+00  4.048E+00  8.435E-04  0.000E+00  1.998E-03
   1    4   44     1    44    6.0937E+00  1.9976E-03   6.0917E+00  0.000E+00  0.000E+00  0.000E+00  1.28819E+02  1.869E+00  4.048E+00  8.434E-04  5.781E-04  1.419E-03
   1    4   45     1    45    6.0917E+00  1.9970E-03   6.0897E+00  0.000E+00  0.000E+00  0.000E+00  1.28518E+02  1.868E+00  4.048E+00  8.433E-04  1.704E-03  2.930E-04
   1    4   46     1    46    6.0897E+00  1.9965E-03   6.0877E+00  0.000E+00  0.000E+00  0.000E+00  1.28218E+02  1.868E+00  4.047E+00  8.432E-04  2.841E-03 -8.334E-04
   1    4   47     1    47    6.0877E+00  1.9960E-03   6.0857E+00  0.000E+00  0.000E+00  0.000E+00  1.27918E+02  1.868E+00  4.047E+00  8.431E-04  3.931E-03 -1.925E-03
   1    4   48     1    48    6.0857E+00  1.9955E-03   6.0837E+00  0.000E+00  0.000E+00  0.000E+00  1.27617E+02  1.867E+00  4.047E+00  8.430E-04  4.987E-03 -2.981E-03
   1    4   49     1    49    6.0837E+00  1.9950E-03   6.0817E+00  0.000E+00  0.000E+00  0.000E+00  1.27317E+02  1.867E+00  4.046E+00  8.429E-04  5.997E-03 -3.992E-03
   1    4   50     1    50    6.0817E+00  1.9944E-03   6.0797E+00  0.000E+00  0.000E+00  0.000E+00  1.27017E+02  1.867E+00  4.046E+00  8.428E-04  4.985E-03  4.977E-03
   1    4   51     1    51    6.0797E+00  1.6819E-03   6.0780E+00  0.000E+00  0.000E+00  0.000E+00  1.26716E+02  1.866E+00  4.045E+00  8.427E-04  4.984E-03  4.976E-03
   1    4   52     1    52    6.0780E+00  1.3906E-03   6.0766E+00  0.000E+00  0.000E+00  0.000E+00  1.26416E+02  1.866E+00  4.045E+00  8.426E-04  4.982E-03  4.974E-03
   1    4   53     1    53    6.0766E+00  1.1194E-03   6.0755E+00  0.000E+00  0.000E+00  0.000E+00  1.26116E+02  1.866E+00  4.045E+00  8.425E-04  4.980E-03  4.972E-03
   1    4   54     1    54    6.0755E+00  8.6719E-04   6.0746E+00  0.000E+00  0.000E+00  0.000E+00  1.25816E+02  1.866E+00  4.045E+00  8.425E-04  4.978E-03  4.971E-03
   1    4   55     1    55    6.0746E+00  6.3365E-04   6.0740E+00  0.000E+00  0.000E+00  0.000E+00  1.25516E+02  1.866E+00  4.045E+00  8.424E-04  4.977E-03  4.969E-03
   1    4   56     1    56    6.0740E+00  4.1787E-04   6.0736E+00  0.000E+00  0.000E+00  0.000E+00  1.25216E+02  1.866E+00  4.044E+00  8.424E-04  4.975E-03  4.967E-03
   1    4   57     1    57    6.0736E+00  2.1914E-04   6.0734E+00  0.000E+00  0.000E+00  0.000E+00  1.24915E+02  1.865E+00  4.044E+00  8.424E-04  4.973E-03  4.965E-03
   1    4   58     1    58    6.0734E+00  3.7060E-05   6.0733E+00  0.000E+00  0.000E+00  0.000E+00  1.24615E+02  1.865E+00  4.044E+00  8.424E-04  4.972E-03  4.964E-03
   1    4   59     1    59    6.0733E+00 -1.2866E-04   6.0735E+00  0.000E+00  0.000E+00  0.000E+00  1.24315E+02  1.865E+00  4.044E+00  8.424E-04  4.970E-03  4.962E-03
   1    4   60     1    60    6.0735E+00 -2.7893E-04   6.0737E+00  0.000E+00  0.000E+00  0.000E+00  1.24016E+02  1.866E+00  4.044E+00  8.424E-04  4.968E-03  4.960E-03
   1    4   61     1    61    6.0737E+00 -4.1428E-04   6.0741E+00  0.000E+00  0.000E+00  0.000E+00  1.23716E+02  1.866E+00  4.045E+00  8.424E-04  4.966E-03  4.958E-03
   1    4   62     1    62    6.0741E+00 -5.3459E-04   6.0747E+00  0.000E+00  0.000E+00  0.000E+00  1.23416E+02  1.866E+00  4.045E+00  8.424E-04  4.965E-03  4.957E-03
   1    4   63     1    63    6.0747E+00 -6.3997E-04   6.0753E+00  0.000E+00  0.000E+00  0.000E+00  1.23116E+02  1.866E+00  4.045E+00  8.425E-04  4.962E-03  4.955E-03
   1    4   64     1    64    6.0753E+00 -7.3132E-04   6.0761E+00  0.000E+00  0.000E+00  0.000E+00  1.22816E+02  1.866E+00  4.045E+00  8.425E-04  4.960E-03  4.953E-03
   1    4   65     1    65    6.0761E+00 -8.0779E-04   6.0769E+00  0.000E+00  0.000E+00  0.000E+00  1.22516E+02  1.866E+00  4.045E+00  8.425E-04  4.296E-03  4.290E-03
   1    4   66     1    66    6.0769E+00 -8.7208E-04   6.0777E+00  0.000E+00  0.000E+00  0.000E+00  1.22216E+02  1.866E+00  4.045E+00  8.426E-04  3.615E-03  3.610E-03
   1    4   67     1    67    6.0777E+00 -9.2657E-04   6.0787E+00  0.000E+00  0.000E+00  0.000E+00  1.21916E+02  1.866E+00  4.045E+00  8.426E-04  2.949E-03  2.945E-03
   1    4   68     1    68    6.0787E+00 -9.7458E-04   6.0796E+00  0.000E+00  0.000E+00  0.000E+00  1.21616E+02  1.866E+00  4.045E+00  8.427E-04  2.307E-03  2.303E-03
   1    4   69     1    69    6.0796E+00 -1.0186E-03   6.0807E+00  0.000E+00  0.000E+00  0.000E+00  1.21317E+02  1.867E+00  4.046E+00  8.427E-04  1.769E-03  1.766E-03
   1    4   70     1    70    6.0807E+00 -1.0602E-03   6.0817E+00  0.000E+00  0.000E+00  0.000E+00  1.21017E+02  1.867E+00  4.046E+00  8.428E-04  1.806E-03  1.804E-03
   1    4   71     1    71    6.0817E+00 -1.0975E-03   6.0828E+00  0.000E+00  0.000E+00  0.000E+00  1.20717E+02  1.867E+00  4.046E+00  8.428E-04  1.311E-03  1.310E-03
   1    4   72     1    72    6.0828E+00 -1.1338E-03   6.0839E+00  0.000E+00  0.000E+00  0.000E+00  1.20417E+02  1.867E+00  4.046E+00  8.429E-04  6.945E-04  6.937E-04
   1    4   73     1    73    6.0839E+00 -1.1715E-03   6.0851E+00  0.000E+00  0.000E+00  0.000E+00  1.20117E+02  1.867E+00  4.047E+00  8.430E-04  8.933E-05  8.923E-05
   1    4   74     1    74    6.0851E+00 -1.2129E-03   6.0863E+00  0.000E+00  0.000E+00  0.000E+00  1.19817E+02  1.867E+00  4.047E+00  8.430E-04  0.000E+00  0.000E+00
   1    4   75     1    75    6.0863E+00 -1.2576E-03   6.0876E+00  0.000E+00  0.000E+00  0.000E+00  1.19518E+02  1.868E+00  4.047E+00  8.431E-04  0.000E+00  0.000E+00
   1    4   76     1    76    6.0876E+00 -1.3065E-03   6.0889E+00  0.000E+00  0.000E+00  0.000E+00  1.19218E+02  1.868E+00  4.047E+00  8.431E-04  0.000E+00  0.000E+00
   1    4   77     1    77    6.0889E+00 -1.3597E-03   6.0903E+00  0.000E+00  0.000E+00  0.000E+00  1.18918E+02  1.868E+00  4.047E+00  8.432E-04  0.000E+00  0.000E+00
   1    4   78     1    78    6.0903E+00 -1.4165E-03   6.0917E+00  0.000E+00  0.000E+00  0.000E+00  1.18618E+02  1.868E+00  4.048E+00  8.433E-04  0.000E+00  0.000E+00
   1    4   79     1    79    6.0917E+00 -1.4771E-03   6.0931E+00  0.000E+00  0.000E+00  0.000E+00  1.18318E+02  1.868E+00  4.048E+00  8.434E-04  0.000E+00  0.000E+00
   1    4   80     1    80    6.0931E+00 -1.5426E-03   6.0947E+00  0.000E+00  0.000E+00  0.000E+00  1.18019E+02  1.869E+00  4.048E+00  8.434E-04  0.000E+00  0.000E+00
   1    4   81     1    81    6.0947E+00 -1.6133E-03   6.0963E+00  0.000E+00  0.000E+00  0.000E+00  1.17719E+02  1.869E+00  4.049E+00  8.435E-04  0.000E+00  0.000E+00
   1    4   82     1    82    6.0963E+00 -1.6885E-03   6.0980E+00  0.000E+00  0.000E+00  0.000E+00  1.17419E+02  1.869E+00  4.049E+00  8.436E-04  0.000E+00  0.000E+00
   1    4   83     1    83    6.0980E+00 -1.7687E-03   6.0998E+00  0.000E+00  0.000E+00  0.000E+00  1.17119E+02  1.869E+00  4.049E+00  8.437E-04  0.000E+00  0.000E+00
   1    4   84     1    84    6.0998E+00 -1.8547E-03   6.1016E+00  0.000E+00  0.000E+00  0.000E+00  1.16820E+02  1.870E+00  4.050E+00  8.438E-04  0.000E+00  0.000E+00
   1    4   85     1    85    6.1016E+00 -1.9471E-03   6.1036E+00  0.000E+00  0.000E+00  0.000E+00  1.16520E+02  1.870E+00  4.050E+00  8.439E-04  0.000E+00  0.000E+00
   1    4   86     1    86    6.1036E+00 -2.0453E-03   6.1056E+00  0.000E+00  0.000E+00  0.000E+00  1.16220E+02  1.870E+00  4.050E+00  8.440E-04  0.000E+00  0.000E+00
   1    4   87     1    87    6.1056E+00 -2.1497E-03   6.1078E+00  0.000E+00  0.000E+00  0.000E+00  1.15921E+02  1.871E+00  4.051E+00  8.441E-04  0.000E+00  0.000E+00
   1    4   88     1    88    6.1078E+00 -2.2615E-03   6.1100E+00  0.000E+00  0.000E+00  0.000E+00  1.15621E+02  1.871E+00  4.051E+00  8.442E-04  0.000E+00  0.000E+00
   1    4   89     1    89    6.1100E+00 -2.3810E-03   6.1124E+00  0.000E+00  0.000E+00  0.000E+00  1.15321E+02  1.871E+00  4.052E+00  8.443E-04  0.000E+00  0.000E+00
   1    4   90     1    90    6.1124E+00 -2.5081E-03   6.1149E+00  0.000E+00  0.000E+00  0.000E+00  1.15022E+02  1.872E+00  4.052E+00  8.445E-04  0.000E+00  0.000E+00
   1    4   91     1    91    6.1149E+00 -2.6432E-03   6.1176E+00  0.000E+00  0.000E+00  0.000E+00  1.14722E+02  1.872E+00  4.052E+00  8.446E-04  0.000E+00  0.000E+00
   1    4   92     1    92    6.1176E+00 -2.7874E-03   6.1203E+00  0.000E+00  0.000E+00  0.000E+00  1.14423E+02  1.873E+00  4.053E+00  8.447E-04  0.000E+00  0.000E+00
   1    4   93     1    93    6.1203E+00 -2.9414E-03   6.1233E+00  0.000E+00  0.000E+00  0.000E+00  1.14123E+02  1.873E+00  4.054E+00  8.449E-04  0.000E+00  0.000E+00
   1    4   94     1    94    6.1233E+00 -3.1050E-03   6.1264E+00  0.000E+00  0.000E+00  0.000E+00  1.13824E+02  1.874E+00  4.054E+00  8.450E-04  0.000E+00  0.000E+00
   1    4   95     1    95    6.1264E+00 -3.2790E-03   6.1297E+00  0.000E+00  0.000E+00  0.000E+00  1.13524E+02  1.874E+00  4.055E+00  8.452E-04  0.000E+00  0.000E+00
   1    4   96     1    96    6.1297E+00 -3.4646E-03   6.1331E+00  0.000E+00  0.000E+00  0.000E+00  1.13225E+02  1.875E+00  4.055E+00  8.454E-04  0.000E+00  0.000E+00
   1    4   97     1    97    6.1331E+00 -3.6623E-03   6.1368E+00  0.000E+00  0.000E+00  0.000E+00  1.12925E+02  1.875E+00  4.056E+00  8.456E-04  0.000E+00  0.000E+00
   1    4   98     1    98    6.1368E+00 -3.8726E-03   6.1407E+00  0.000E+00  0.000E+00  0.000E+00  1.12626E+02  1.876E+00  4.057E+00  8.457E-04  0.000E+00  0.000E+00
   1    4   99     1    99    6.1407E+00 -4.0965E-03   6.1448E+00  0.000E+00  0.000E+00  0.000E+00  1.12326E+02  1.876E+00  4.057E+00  8.460E-04  0.000E+00  0.000E+00
   1    4  100     1   100    6.1448E+00 -4.3350E-03   6.1491E+00  0.000E+00  0.000E+00  0.000E+00  1.12027E+02  1.877E+00  4.058E+00  8.462E-04  0.000E+00  0.000E+00



1
  VOLUMETRIC BUDGET FOR UNSATURATED ZONE BENEATH STREAMS AT END OF TIME STEP    16 STRESS PERIOD  15
  ------------------------------------------------------------------------------------------------

    CUMULATIVE VOLUMES             L**3    RATES FOR THIS TIME STEP         L**3/T
    ------------------                     ------------------------


          STREAM LOSS =     11000140.0000            STREAM LOSS =        9.8312E-02
    CHANGE IN STORAGE =        86465.8438      CHANGE IN STORAGE =       -6.6421E-02
       RECHARGE TO GW =     10916347.0000         RECHARGE TO GW =            0.1649

             TOTAL IN =     11000140.0000               TOTAL IN =            0.1647

            TOTAL OUT =     11002813.0000              TOTAL OUT =            0.1649

             IN - OUT =        -2673.0000               IN - OUT =       -1.6524E-04

  PERCENT DISCREPANCY =           -0.01      PERCENT DISCREPANCY =            -0.03




         ****FAILED TO MEET SOLVER CONVERGENCE CRITERIA IN TIME STEP   16 OF STRESS PERIOD   15****
1
  VOLUMETRIC BUDGET FOR ENTIRE MODEL AT END OF TIME STEP   16, STRESS PERIOD  15
  ------------------------------------------------------------------------------

     CUMULATIVE VOLUMES      L**3       RATES FOR THIS TIME STEP      L**3/T
     ------------------                 ------------------------

           IN:                                      IN:
           ---                                      ---
             STORAGE =      380945.3438               STORAGE =           0.0000
       CONSTANT HEAD =           0.0000         CONSTANT HEAD =           0.0000
     HEAD DEP BOUNDS =     9756002.0000       HEAD DEP BOUNDS =       8.1793E-02
      STREAM LEAKAGE =    11537298.0000        STREAM LEAKAGE =           0.1733

            TOTAL IN =    21674244.0000              TOTAL IN =           0.2551

          OUT:                                     OUT:
          ----                                     ----
             STORAGE =    20974022.0000               STORAGE =           0.1792
       CONSTANT HEAD =           0.0000         CONSTANT HEAD =           0.0000
     HEAD DEP BOUNDS =           0.0000       HEAD DEP BOUNDS =           0.0000
      STREAM LEAKAGE =      700439.0625        STREAM LEAKAGE =       7.5768E-02

           TOTAL OUT =    21674462.0000             TOTAL OUT =           0.2550

            IN - OUT =        -218.0000              IN - OUT =       6.7949E-05

 PERCENT DISCREPANCY =          -0.00     PERCENT DISCREPANCY =           0.03






         TIME SUMMARY AT END OF TIME STEP   16 IN STRESS PERIOD   15
                    SECONDS     MINUTES      HOURS       DAYS        YEARS
                    -----------------------------------------------------------
   TIME STEP LENGTH  65823.      1097.0      18.284     0.76184     2.08579E-03
 STRESS PERIOD TIME 5.66475E+05  9441.2      157.35      6.5564     1.79505E-02
         TOTAL TIME 3.68545E+07 6.14241E+05  10237.      426.56      1.1678    
1
 FAILURE TO MEET SOLVER CONVERGENCE CRITERIA
 BUDGET PERCENT DISCREPANCY IS    0.0266
 STOPPING SIMULATION

 Run end date and time (yyyy/mm/dd hh:mm:ss): 2020/06/01 21:31:00
 Elapsed run time: 37.328 Seconds

